$WAVEWATCH III SHADOW OBSTRUCTIONS
75
$ ilon ilat of the cell. lon: 6.6124359, lat: 29.2
7   1
$ sizes of the cell in km
    63.736       44.228       37.670       44.786       63.736       44.228       37.670       44.786       63.736
$ mean alpha: 0.8674986955646934
$ mean beta: 0.8674986955646934
$alpha by ik, ith
1.00  1.00  1.00  1.00  0.81  0.00  1.00  1.00  1.00
1.00  1.00  1.00  1.00  0.81  0.00  1.00  1.00  1.00
1.00  1.00  1.00  1.00  0.81  0.00  1.00  1.00  1.00
1.00  1.00  1.00  1.00  0.81  0.00  1.00  1.00  1.00
1.00  1.00  1.00  1.00  0.81  0.00  1.00  1.00  1.00
$beta by ik, ith
1.00  1.00  1.00  1.00  0.81  0.00  1.00  1.00  1.00
1.00  1.00  1.00  1.00  0.81  0.00  1.00  1.00  1.00
1.00  1.00  1.00  1.00  0.81  0.00  1.00  1.00  1.00
1.00  1.00  1.00  1.00  0.81  0.00  1.00  1.00  1.00
1.00  1.00  1.00  1.00  0.81  0.00  1.00  1.00  1.00
$ ilon ilat of the cell. lon: 7.80206835, lat: 30.39962121
16   1
$ sizes of the cell in km
    66.313       73.427       78.335       67.190       66.313       73.427       78.335       67.190       66.313
$ mean alpha: 0.453812241017599
$ mean beta: 0.517983656558976
$alpha by ik, ith
0.00  0.00  0.54  1.00  1.00  1.00  0.54  0.00  0.00
0.00  0.00  0.54  1.00  1.00  1.00  0.54  0.00  0.00
0.00  0.00  0.54  1.00  1.00  1.00  0.54  0.00  0.00
0.00  0.00  0.54  1.00  1.00  1.00  0.54  0.00  0.00
0.00  0.00  0.54  1.00  1.00  1.00  0.54  0.00  0.00
$beta by ik, ith
0.25  0.00  0.61  1.00  1.00  1.00  0.54  0.00  0.25
0.25  0.00  0.61  1.00  1.00  1.00  0.54  0.00  0.25
0.25  0.00  0.61  1.00  1.00  1.00  0.54  0.00  0.25
0.25  0.00  0.61  1.00  1.00  1.00  0.54  0.00  0.25
0.25  0.00  0.61  1.00  1.00  1.00  0.54  0.00  0.25
$ ilon ilat of the cell. lon: 7.22093353, lat: 31.60542966
32   1
$ sizes of the cell in km
    70.818       62.810       64.451       69.292       70.818       62.810       64.451       69.292       70.818
$ mean alpha: 0.4933094473108461
$ mean beta: 0.5555451755279106
$alpha by ik, ith
0.97  0.83  0.34  0.00  0.00  0.00  0.34  1.00  0.97
0.97  0.83  0.34  0.00  0.00  0.00  0.34  1.00  0.97
0.97  0.83  0.34  0.00  0.00  0.00  0.34  1.00  0.97
0.97  0.83  0.34  0.00  0.00  0.00  0.34  1.00  0.97
0.97  0.83  0.34  0.00  0.00  0.00  0.34  1.00  0.97
$beta by ik, ith
0.99  0.94  0.37  0.01  0.31  0.00  0.38  1.00  0.99
0.99  0.94  0.37  0.01  0.31  0.00  0.38  1.00  0.99
0.99  0.94  0.37  0.01  0.31  0.00  0.38  1.00  0.99
0.99  0.94  0.37  0.01  0.31  0.00  0.38  1.00  0.99
0.99  0.94  0.37  0.01  0.31  0.00  0.38  1.00  0.99
$ ilon ilat of the cell. lon: 6.98820082, lat: 32.27847505
37   1
$ sizes of the cell in km
    56.371       57.768       55.799       52.483       56.371       57.768       55.799       52.483       56.371
$ mean alpha: 0.6666666666666666
$ mean beta: 0.6666666666666666
$alpha by ik, ith
1.00  1.00  1.00  0.00  0.00  0.00  1.00  1.00  1.00
1.00  1.00  1.00  0.00  0.00  0.00  1.00  1.00  1.00
1.00  1.00  1.00  0.00  0.00  0.00  1.00  1.00  1.00
1.00  1.00  1.00  0.00  0.00  0.00  1.00  1.00  1.00
1.00  1.00  1.00  0.00  0.00  0.00  1.00  1.00  1.00
$beta by ik, ith
1.00  1.00  1.00  0.00  0.00  0.00  1.00  1.00  1.00
1.00  1.00  1.00  0.00  0.00  0.00  1.00  1.00  1.00
1.00  1.00  1.00  0.00  0.00  0.00  1.00  1.00  1.00
1.00  1.00  1.00  0.00  0.00  0.00  1.00  1.00  1.00
1.00  1.00  1.00  0.00  0.00  0.00  1.00  1.00  1.00
$ ilon ilat of the cell. lon: 6.8247991, lat: 31.87546184
39   1
$ sizes of the cell in km
    60.030       58.797       57.542       57.189       60.030       58.797       57.542       57.189       60.030
$ mean alpha: 0.7280560801004532
$ mean beta: 0.733779691639225
$alpha by ik, ith
1.00  1.00  1.00  0.00  0.00  0.55  1.00  1.00  1.00
1.00  1.00  1.00  0.00  0.00  0.55  1.00  1.00  1.00
1.00  1.00  1.00  0.00  0.00  0.55  1.00  1.00  1.00
1.00  1.00  1.00  0.00  0.00  0.55  1.00  1.00  1.00
1.00  1.00  1.00  0.00  0.00  0.55  1.00  1.00  1.00
$beta by ik, ith
1.00  1.00  1.00  0.00  0.00  0.60  1.00  1.00  1.00
1.00  1.00  1.00  0.00  0.00  0.60  1.00  1.00  1.00
1.00  1.00  1.00  0.00  0.00  0.60  1.00  1.00  1.00
1.00  1.00  1.00  0.00  0.00  0.60  1.00  1.00  1.00
1.00  1.00  1.00  0.00  0.00  0.60  1.00  1.00  1.00
$ ilon ilat of the cell. lon: 8.10767329, lat: 35.56120552
43   1
$ sizes of the cell in km
    55.243       53.975       59.816       63.592       55.243       53.975       59.816       63.592       55.243
$ mean alpha: 0.7723653518462048
$ mean beta: 0.7842350690257109
$alpha by ik, ith
0.13  1.00  1.00  1.00  1.00  1.00  1.00  0.70  0.13
0.13  1.00  1.00  1.00  1.00  1.00  1.00  0.70  0.13
0.13  1.00  1.00  1.00  1.00  1.00  1.00  0.70  0.13
0.13  1.00  1.00  1.00  1.00  1.00  1.00  0.70  0.13
0.13  1.00  1.00  1.00  1.00  1.00  1.00  0.70  0.13
$beta by ik, ith
0.18  1.00  1.00  1.00  1.00  1.00  1.00  0.71  0.18
0.18  1.00  1.00  1.00  1.00  1.00  1.00  0.71  0.18
0.18  1.00  1.00  1.00  1.00  1.00  1.00  0.71  0.18
0.18  1.00  1.00  1.00  1.00  1.00  1.00  0.71  0.18
0.18  1.00  1.00  1.00  1.00  1.00  1.00  0.71  0.18
$ ilon ilat of the cell. lon: 7.34368734, lat: 33.967713
45   1
$ sizes of the cell in km
    70.739       66.240       67.963       77.994       70.739       66.240       67.963       77.994       70.739
$ mean alpha: 0.5290044283505345
$ mean beta: 0.5848455031148426
$alpha by ik, ith
1.00  0.99  0.39  0.00  0.00  0.00  0.39  0.99  1.00
1.00  0.99  0.39  0.00  0.00  0.00  0.39  0.99  1.00
1.00  0.99  0.39  0.00  0.00  0.00  0.39  0.99  1.00
1.00  0.99  0.39  0.00  0.00  0.00  0.39  0.99  1.00
1.00  0.99  0.39  0.00  0.00  0.00  0.39  0.99  1.00
$beta by ik, ith
1.00  1.00  0.52  0.00  0.24  0.00  0.50  1.00  1.00
1.00  1.00  0.52  0.00  0.24  0.00  0.50  1.00  1.00
1.00  1.00  0.52  0.00  0.24  0.00  0.50  1.00  1.00
1.00  1.00  0.52  0.00  0.24  0.00  0.50  1.00  1.00
1.00  1.00  0.52  0.00  0.24  0.00  0.50  1.00  1.00
$ ilon ilat of the cell. lon: 7.99651012, lat: 32.15393415
46   1
$ sizes of the cell in km
    79.304       72.768       70.504       74.289       79.304       72.768       70.504       74.289       79.304
$ mean alpha: 0.5555555555555556
$ mean beta: 0.5555555555555556
$alpha by ik, ith
0.00  0.00  1.00  1.00  1.00  1.00  1.00  0.00  0.00
0.00  0.00  1.00  1.00  1.00  1.00  1.00  0.00  0.00
0.00  0.00  1.00  1.00  1.00  1.00  1.00  0.00  0.00
0.00  0.00  1.00  1.00  1.00  1.00  1.00  0.00  0.00
0.00  0.00  1.00  1.00  1.00  1.00  1.00  0.00  0.00
$beta by ik, ith
0.00  0.00  1.00  1.00  1.00  1.00  1.00  0.00  0.00
0.00  0.00  1.00  1.00  1.00  1.00  1.00  0.00  0.00
0.00  0.00  1.00  1.00  1.00  1.00  1.00  0.00  0.00
0.00  0.00  1.00  1.00  1.00  1.00  1.00  0.00  0.00
0.00  0.00  1.00  1.00  1.00  1.00  1.00  0.00  0.00
$ ilon ilat of the cell. lon: 6.95347585, lat: 33.15382488
47   1
$ sizes of the cell in km
    73.627       62.188       61.297       69.610       73.627       62.188       61.297       69.610       73.627
$ mean alpha: 0.6487761964363963
$ mean beta: 0.6631512526198615
$alpha by ik, ith
1.00  1.00  0.92  0.00  0.00  0.00  0.92  1.00  1.00
1.00  1.00  0.92  0.00  0.00  0.00  0.92  1.00  1.00
1.00  1.00  0.92  0.00  0.00  0.00  0.92  1.00  1.00
1.00  1.00  0.92  0.00  0.00  0.00  0.92  1.00  1.00
1.00  1.00  0.92  0.00  0.00  0.00  0.92  1.00  1.00
$beta by ik, ith
1.00  1.00  0.93  0.00  0.12  0.00  0.92  1.00  1.00
1.00  1.00  0.93  0.00  0.12  0.00  0.92  1.00  1.00
1.00  1.00  0.93  0.00  0.12  0.00  0.92  1.00  1.00
1.00  1.00  0.93  0.00  0.12  0.00  0.92  1.00  1.00
1.00  1.00  0.93  0.00  0.12  0.00  0.92  1.00  1.00
$ ilon ilat of the cell. lon: 7.45817242, lat: 32.02599122
48   1
$ sizes of the cell in km
    65.119       63.934       64.024       63.594       65.119       63.934       64.024       63.594       65.119
$ mean alpha: 0.5197832785105855
$ mean beta: 0.6951832666211056
$alpha by ik, ith
1.00  0.41  0.26  0.17  0.96  0.25  0.26  0.36  1.00
1.00  0.41  0.26  0.17  0.96  0.25  0.26  0.36  1.00
1.00  0.41  0.26  0.17  0.96  0.25  0.26  0.36  1.00
1.00  0.41  0.26  0.17  0.96  0.25  0.26  0.36  1.00
1.00  0.41  0.26  0.17  0.96  0.25  0.26  0.36  1.00
$beta by ik, ith
1.00  0.68  0.38  0.58  0.98  0.69  0.26  0.68  1.00
1.00  0.68  0.38  0.58  0.98  0.69  0.26  0.68  1.00
1.00  0.68  0.38  0.58  0.98  0.69  0.26  0.68  1.00
1.00  0.68  0.38  0.58  0.98  0.69  0.26  0.68  1.00
1.00  0.68  0.38  0.58  0.98  0.69  0.26  0.68  1.00
$ ilon ilat of the cell. lon: 6.74062712, lat: 32.70987321
49   1
$ sizes of the cell in km
    67.164       61.947       62.360       66.466       67.164       61.947       62.360       66.466       67.164
$ mean alpha: 0.7931736794335678
$ mean beta: 0.7976304773327298
$alpha by ik, ith
1.00  1.00  1.00  0.43  0.00  0.71  1.00  1.00  1.00
1.00  1.00  1.00  0.43  0.00  0.71  1.00  1.00  1.00
1.00  1.00  1.00  0.43  0.00  0.71  1.00  1.00  1.00
1.00  1.00  1.00  0.43  0.00  0.71  1.00  1.00  1.00
1.00  1.00  1.00  0.43  0.00  0.71  1.00  1.00  1.00
$beta by ik, ith
1.00  1.00  1.00  0.43  0.00  0.75  1.00  1.00  1.00
1.00  1.00  1.00  0.43  0.00  0.75  1.00  1.00  1.00
1.00  1.00  1.00  0.43  0.00  0.75  1.00  1.00  1.00
1.00  1.00  1.00  0.43  0.00  0.75  1.00  1.00  1.00
1.00  1.00  1.00  0.43  0.00  0.75  1.00  1.00  1.00
$ ilon ilat of the cell. lon: 6.57852883, lat: 31.26806205
50   1
$ sizes of the cell in km
    81.995       82.933       76.841       77.484       81.995       82.933       76.841       77.484       81.995
$ mean alpha: 0.819801764116988
$ mean beta: 0.8200284535702194
$alpha by ik, ith
1.00  1.00  1.00  0.59  0.00  0.79  1.00  1.00  1.00
1.00  1.00  1.00  0.59  0.00  0.79  1.00  1.00  1.00
1.00  1.00  1.00  0.59  0.00  0.79  1.00  1.00  1.00
1.00  1.00  1.00  0.59  0.00  0.79  1.00  1.00  1.00
1.00  1.00  1.00  0.59  0.00  0.79  1.00  1.00  1.00
$beta by ik, ith
1.00  1.00  1.00  0.59  0.00  0.79  1.00  1.00  1.00
1.00  1.00  1.00  0.59  0.00  0.79  1.00  1.00  1.00
1.00  1.00  1.00  0.59  0.00  0.79  1.00  1.00  1.00
1.00  1.00  1.00  0.59  0.00  0.79  1.00  1.00  1.00
1.00  1.00  1.00  0.59  0.00  0.79  1.00  1.00  1.00
$ ilon ilat of the cell. lon: 6.86804057, lat: 30.52178752
51   1
$ sizes of the cell in km
    61.843       66.687       73.294       68.334       61.843       66.687       73.294       68.334       61.843
$ mean alpha: 0.6666666666666666
$ mean beta: 0.685894427989572
$alpha by ik, ith
1.00  1.00  1.00  0.00  0.00  0.00  1.00  1.00  1.00
1.00  1.00  1.00  0.00  0.00  0.00  1.00  1.00  1.00
1.00  1.00  1.00  0.00  0.00  0.00  1.00  1.00  1.00
1.00  1.00  1.00  0.00  0.00  0.00  1.00  1.00  1.00
1.00  1.00  1.00  0.00  0.00  0.00  1.00  1.00  1.00
$beta by ik, ith
1.00  1.00  1.00  0.00  0.17  0.00  1.00  1.00  1.00
1.00  1.00  1.00  0.00  0.17  0.00  1.00  1.00  1.00
1.00  1.00  1.00  0.00  0.17  0.00  1.00  1.00  1.00
1.00  1.00  1.00  0.00  0.17  0.00  1.00  1.00  1.00
1.00  1.00  1.00  0.00  0.17  0.00  1.00  1.00  1.00
$ ilon ilat of the cell. lon: 7.21379879, lat: 31.02571266
52   1
$ sizes of the cell in km
    66.342       60.459       60.777       66.779       66.342       60.459       60.777       66.779       66.342
$ mean alpha: 0.5817598997449953
$ mean beta: 0.6145610915356197
$alpha by ik, ith
1.00  0.88  0.71  0.00  0.00  0.00  0.71  0.93  1.00
1.00  0.88  0.71  0.00  0.00  0.00  0.71  0.93  1.00
1.00  0.88  0.71  0.00  0.00  0.00  0.71  0.93  1.00
1.00  0.88  0.71  0.00  0.00  0.00  0.71  0.93  1.00
1.00  0.88  0.71  0.00  0.00  0.00  0.71  0.93  1.00
$beta by ik, ith
1.00  0.98  0.78  0.00  0.07  0.00  0.71  0.99  1.00
1.00  0.98  0.78  0.00  0.07  0.00  0.71  0.99  1.00
1.00  0.98  0.78  0.00  0.07  0.00  0.71  0.99  1.00
1.00  0.98  0.78  0.00  0.07  0.00  0.71  0.99  1.00
1.00  0.98  0.78  0.00  0.07  0.00  0.71  0.99  1.00
$ ilon ilat of the cell. lon: 7.3654991, lat: 30.62068509
53   1
$ sizes of the cell in km
    50.675       63.619       65.057       55.708       50.675       63.619       65.057       55.708       50.675
$ mean alpha: 0.37572585694750693
$ mean beta: 0.5177004386144882
$alpha by ik, ith
0.85  1.00  0.01  0.00  0.00  0.00  0.01  0.67  0.85
0.85  1.00  0.01  0.00  0.00  0.00  0.01  0.67  0.85
0.85  1.00  0.01  0.00  0.00  0.00  0.01  0.67  0.85
0.85  1.00  0.01  0.00  0.00  0.00  0.01  0.67  0.85
0.85  1.00  0.01  0.00  0.00  0.00  0.01  0.67  0.85
$beta by ik, ith
0.97  1.00  0.14  0.00  0.47  0.22  0.01  0.88  0.97
0.97  1.00  0.14  0.00  0.47  0.22  0.01  0.88  0.97
0.97  1.00  0.14  0.00  0.47  0.22  0.01  0.88  0.97
0.97  1.00  0.14  0.00  0.47  0.22  0.01  0.88  0.97
0.97  1.00  0.14  0.00  0.47  0.22  0.01  0.88  0.97
$ ilon ilat of the cell. lon: 6.52561787, lat: 30.84222003
54   1
$ sizes of the cell in km
    53.748       57.016       53.553       50.520       53.748       57.016       53.553       50.520       53.748
$ mean alpha: 0.9226631990611345
$ mean beta: 0.9226631990611345
$alpha by ik, ith
1.00  1.00  1.00  1.00  0.30  1.00  1.00  1.00  1.00
1.00  1.00  1.00  1.00  0.30  1.00  1.00  1.00  1.00
1.00  1.00  1.00  1.00  0.30  1.00  1.00  1.00  1.00
1.00  1.00  1.00  1.00  0.30  1.00  1.00  1.00  1.00
1.00  1.00  1.00  1.00  0.30  1.00  1.00  1.00  1.00
$beta by ik, ith
1.00  1.00  1.00  1.00  0.30  1.00  1.00  1.00  1.00
1.00  1.00  1.00  1.00  0.30  1.00  1.00  1.00  1.00
1.00  1.00  1.00  1.00  0.30  1.00  1.00  1.00  1.00
1.00  1.00  1.00  1.00  0.30  1.00  1.00  1.00  1.00
1.00  1.00  1.00  1.00  0.30  1.00  1.00  1.00  1.00
$ ilon ilat of the cell. lon: 7.81865385, lat: 29.2
55   1
$ sizes of the cell in km
    62.720       36.270       35.431       48.754       62.720       36.270       35.431       48.754       62.720
$ mean alpha: 0.7258641191695128
$ mean beta: 0.7875478756160471
$alpha by ik, ith
0.79  0.63  1.00  1.00  1.00  1.00  0.33  0.00  0.79
0.79  0.63  1.00  1.00  1.00  1.00  0.33  0.00  0.79
0.79  0.63  1.00  1.00  1.00  1.00  0.33  0.00  0.79
0.79  0.63  1.00  1.00  1.00  1.00  0.33  0.00  0.79
0.79  0.63  1.00  1.00  1.00  1.00  0.33  0.00  0.79
$beta by ik, ith
0.90  0.88  1.00  1.00  1.00  1.00  0.41  0.00  0.90
0.90  0.88  1.00  1.00  1.00  1.00  0.41  0.00  0.90
0.90  0.88  1.00  1.00  1.00  1.00  0.41  0.00  0.90
0.90  0.88  1.00  1.00  1.00  1.00  0.41  0.00  0.90
0.90  0.88  1.00  1.00  1.00  1.00  0.41  0.00  0.90
$ ilon ilat of the cell. lon: 8.33058579, lat: 31.24392227
56   1
$ sizes of the cell in km
    63.542       64.756       67.086       64.982       63.542       64.756       67.086       64.982       63.542
$ mean alpha: 0.6985258276836869
$ mean beta: 0.7227898944341986
$alpha by ik, ith
0.07  0.66  1.00  1.00  1.00  1.00  1.00  0.48  0.07
0.07  0.66  1.00  1.00  1.00  1.00  1.00  0.48  0.07
0.07  0.66  1.00  1.00  1.00  1.00  1.00  0.48  0.07
0.07  0.66  1.00  1.00  1.00  1.00  1.00  0.48  0.07
0.07  0.66  1.00  1.00  1.00  1.00  1.00  0.48  0.07
$beta by ik, ith
0.18  0.66  1.00  1.00  1.00  1.00  1.00  0.48  0.18
0.18  0.66  1.00  1.00  1.00  1.00  1.00  0.48  0.18
0.18  0.66  1.00  1.00  1.00  1.00  1.00  0.48  0.18
0.18  0.66  1.00  1.00  1.00  1.00  1.00  0.48  0.18
0.18  0.66  1.00  1.00  1.00  1.00  1.00  0.48  0.18
$ ilon ilat of the cell. lon: 7.88671096, lat: 31.62907758
57   1
$ sizes of the cell in km
    67.767       63.681       68.893       73.168       67.767       63.681       68.893       73.168       67.767
$ mean alpha: 0.5035046765598151
$ mean beta: 0.6119287917719567
$alpha by ik, ith
0.00  0.00  0.76  1.00  1.00  1.00  0.76  0.00  0.00
0.00  0.00  0.76  1.00  1.00  1.00  0.76  0.00  0.00
0.00  0.00  0.76  1.00  1.00  1.00  0.76  0.00  0.00
0.00  0.00  0.76  1.00  1.00  1.00  0.76  0.00  0.00
0.00  0.00  0.76  1.00  1.00  1.00  0.76  0.00  0.00
$beta by ik, ith
0.45  0.00  0.77  1.00  1.00  1.00  0.83  0.00  0.45
0.45  0.00  0.77  1.00  1.00  1.00  0.83  0.00  0.45
0.45  0.00  0.77  1.00  1.00  1.00  0.83  0.00  0.45
0.45  0.00  0.77  1.00  1.00  1.00  0.83  0.00  0.45
0.45  0.00  0.77  1.00  1.00  1.00  0.83  0.00  0.45
$ ilon ilat of the cell. lon: 7.82183451, lat: 30.96019661
58   1
$ sizes of the cell in km
    69.344       70.389       81.903       76.875       69.344       70.389       81.903       76.875       69.344
$ mean alpha: 0.41983043070179327
$ mean beta: 0.5367443888259847
$alpha by ik, ith
0.00  0.00  0.41  1.00  1.00  0.96  0.41  0.00  0.00
0.00  0.00  0.41  1.00  1.00  0.96  0.41  0.00  0.00
0.00  0.00  0.41  1.00  1.00  0.96  0.41  0.00  0.00
0.00  0.00  0.41  1.00  1.00  0.96  0.41  0.00  0.00
0.00  0.00  0.41  1.00  1.00  0.96  0.41  0.00  0.00
$beta by ik, ith
0.45  0.00  0.53  1.00  1.00  0.99  0.41  0.00  0.45
0.45  0.00  0.53  1.00  1.00  0.99  0.41  0.00  0.45
0.45  0.00  0.53  1.00  1.00  0.99  0.41  0.00  0.45
0.45  0.00  0.53  1.00  1.00  0.99  0.41  0.00  0.45
0.45  0.00  0.53  1.00  1.00  0.99  0.41  0.00  0.45
$ ilon ilat of the cell. lon: 7.20905168, lat: 29.79858406
59   1
$ sizes of the cell in km
    92.671      103.417      107.322       96.045       92.671      103.417      107.322       96.045       92.671
$ mean alpha: 0.7980381895966698
$ mean beta: 0.8395461579297042
$alpha by ik, ith
1.00  1.00  1.00  1.00  0.74  0.00  0.45  1.00  1.00
1.00  1.00  1.00  1.00  0.74  0.00  0.45  1.00  1.00
1.00  1.00  1.00  1.00  0.74  0.00  0.45  1.00  1.00
1.00  1.00  1.00  1.00  0.74  0.00  0.45  1.00  1.00
1.00  1.00  1.00  1.00  0.74  0.00  0.45  1.00  1.00
$beta by ik, ith
1.00  1.00  1.00  1.00  0.84  0.26  0.46  1.00  1.00
1.00  1.00  1.00  1.00  0.84  0.26  0.46  1.00  1.00
1.00  1.00  1.00  1.00  0.84  0.26  0.46  1.00  1.00
1.00  1.00  1.00  1.00  0.84  0.26  0.46  1.00  1.00
1.00  1.00  1.00  1.00  0.84  0.26  0.46  1.00  1.00
$ ilon ilat of the cell. lon: 6.63776252, lat: 30.03029857
60   1
$ sizes of the cell in km
    58.168       57.921       53.667       55.836       58.168       57.921       53.667       55.836       58.168
$ mean alpha: 0.8806079955979816
$ mean beta: 0.8806079955979816
$alpha by ik, ith
1.00  1.00  1.00  0.86  0.06  1.00  1.00  1.00  1.00
1.00  1.00  1.00  0.86  0.06  1.00  1.00  1.00  1.00
1.00  1.00  1.00  0.86  0.06  1.00  1.00  1.00  1.00
1.00  1.00  1.00  0.86  0.06  1.00  1.00  1.00  1.00
1.00  1.00  1.00  0.86  0.06  1.00  1.00  1.00  1.00
$beta by ik, ith
1.00  1.00  1.00  0.86  0.06  1.00  1.00  1.00  1.00
1.00  1.00  1.00  0.86  0.06  1.00  1.00  1.00  1.00
1.00  1.00  1.00  0.86  0.06  1.00  1.00  1.00  1.00
1.00  1.00  1.00  0.86  0.06  1.00  1.00  1.00  1.00
1.00  1.00  1.00  0.86  0.06  1.00  1.00  1.00  1.00
$ ilon ilat of the cell. lon: 6.39293355, lat: 29.6200166
62   1
$ sizes of the cell in km
    76.512       69.360       64.109       67.419       76.512       69.360       64.109       67.419       76.512
$ mean alpha: 0.9009071822203932
$ mean beta: 0.9009071822203932
$alpha by ik, ith
1.00  1.00  1.00  1.00  0.11  1.00  1.00  1.00  1.00
1.00  1.00  1.00  1.00  0.11  1.00  1.00  1.00  1.00
1.00  1.00  1.00  1.00  0.11  1.00  1.00  1.00  1.00
1.00  1.00  1.00  1.00  0.11  1.00  1.00  1.00  1.00
1.00  1.00  1.00  1.00  0.11  1.00  1.00  1.00  1.00
$beta by ik, ith
1.00  1.00  1.00  1.00  0.11  1.00  1.00  1.00  1.00
1.00  1.00  1.00  1.00  0.11  1.00  1.00  1.00  1.00
1.00  1.00  1.00  1.00  0.11  1.00  1.00  1.00  1.00
1.00  1.00  1.00  1.00  0.11  1.00  1.00  1.00  1.00
1.00  1.00  1.00  1.00  0.11  1.00  1.00  1.00  1.00
$ ilon ilat of the cell. lon: 7.21554487, lat: 29.2
63   1
$ sizes of the cell in km
    38.989       29.501       22.908       29.849       38.989       29.501       22.908       29.849       38.989
$ mean alpha: 0.7573878891156465
$ mean beta: 0.8073117066728392
$alpha by ik, ith
1.00  1.00  1.00  1.00  0.00  0.00  0.82  1.00  1.00
1.00  1.00  1.00  1.00  0.00  0.00  0.82  1.00  1.00
1.00  1.00  1.00  1.00  0.00  0.00  0.82  1.00  1.00
1.00  1.00  1.00  1.00  0.00  0.00  0.82  1.00  1.00
1.00  1.00  1.00  1.00  0.00  0.00  0.82  1.00  1.00
$beta by ik, ith
1.00  1.00  1.00  1.00  0.45  0.00  0.82  1.00  1.00
1.00  1.00  1.00  1.00  0.45  0.00  0.82  1.00  1.00
1.00  1.00  1.00  1.00  0.45  0.00  0.82  1.00  1.00
1.00  1.00  1.00  1.00  0.45  0.00  0.82  1.00  1.00
1.00  1.00  1.00  1.00  0.45  0.00  0.82  1.00  1.00
$ ilon ilat of the cell. lon: 7.94502106, lat: 29.8010902
64   1
$ sizes of the cell in km
    77.118       74.689       77.801       80.778       77.118       74.689       77.801       80.778       77.118
$ mean alpha: 0.6666666666666666
$ mean beta: 0.736334160166627
$alpha by ik, ith
0.00  1.00  1.00  1.00  1.00  1.00  1.00  0.00  0.00
0.00  1.00  1.00  1.00  1.00  1.00  1.00  0.00  0.00
0.00  1.00  1.00  1.00  1.00  1.00  1.00  0.00  0.00
0.00  1.00  1.00  1.00  1.00  1.00  1.00  0.00  0.00
0.00  1.00  1.00  1.00  1.00  1.00  1.00  0.00  0.00
$beta by ik, ith
0.31  1.00  1.00  1.00  1.00  1.00  1.00  0.00  0.31
0.31  1.00  1.00  1.00  1.00  1.00  1.00  0.00  0.31
0.31  1.00  1.00  1.00  1.00  1.00  1.00  0.00  0.31
0.31  1.00  1.00  1.00  1.00  1.00  1.00  0.00  0.31
0.31  1.00  1.00  1.00  1.00  1.00  1.00  0.00  0.31
$ ilon ilat of the cell. lon: 8.42176282, lat: 29.2
65   1
$ sizes of the cell in km
    63.257       38.476       36.687       48.710       63.257       38.476       36.687       48.710       63.257
$ mean alpha: 0.8834815837748127
$ mean beta: 0.8975493545999942
$alpha by ik, ith
0.48  1.00  1.00  1.00  1.00  1.00  1.00  1.00  0.48
0.48  1.00  1.00  1.00  1.00  1.00  1.00  1.00  0.48
0.48  1.00  1.00  1.00  1.00  1.00  1.00  1.00  0.48
0.48  1.00  1.00  1.00  1.00  1.00  1.00  1.00  0.48
0.48  1.00  1.00  1.00  1.00  1.00  1.00  1.00  0.48
$beta by ik, ith
0.54  1.00  1.00  1.00  1.00  1.00  1.00  1.00  0.54
0.54  1.00  1.00  1.00  1.00  1.00  1.00  1.00  0.54
0.54  1.00  1.00  1.00  1.00  1.00  1.00  1.00  0.54
0.54  1.00  1.00  1.00  1.00  1.00  1.00  1.00  0.54
0.54  1.00  1.00  1.00  1.00  1.00  1.00  1.00  0.54
$ ilon ilat of the cell. lon: 8.46473099, lat: 30.29578375
68   1
$ sizes of the cell in km
    71.453       70.595       69.295       69.573       71.453       70.595       69.295       69.573       71.453
$ mean alpha: 0.7874734797708647
$ mean beta: 0.8104724630679871
$alpha by ik, ith
0.04  1.00  1.00  1.00  1.00  1.00  1.00  1.00  0.04
0.04  1.00  1.00  1.00  1.00  1.00  1.00  1.00  0.04
0.04  1.00  1.00  1.00  1.00  1.00  1.00  1.00  0.04
0.04  1.00  1.00  1.00  1.00  1.00  1.00  1.00  0.04
0.04  1.00  1.00  1.00  1.00  1.00  1.00  1.00  0.04
$beta by ik, ith
0.15  1.00  1.00  1.00  1.00  1.00  1.00  1.00  0.15
0.15  1.00  1.00  1.00  1.00  1.00  1.00  1.00  0.15
0.15  1.00  1.00  1.00  1.00  1.00  1.00  1.00  0.15
0.15  1.00  1.00  1.00  1.00  1.00  1.00  1.00  0.15
0.15  1.00  1.00  1.00  1.00  1.00  1.00  1.00  0.15
$ ilon ilat of the cell. lon: 8.26497386, lat: 30.70892032
70   1
$ sizes of the cell in km
    51.980       53.746       55.903       53.840       51.980       53.746       55.903       53.840       51.980
$ mean alpha: 0.5860396381268753
$ mean beta: 0.5860396381268753
$alpha by ik, ith
0.00  0.27  1.00  1.00  1.00  1.00  1.00  0.01  0.00
0.00  0.27  1.00  1.00  1.00  1.00  1.00  0.01  0.00
0.00  0.27  1.00  1.00  1.00  1.00  1.00  0.01  0.00
0.00  0.27  1.00  1.00  1.00  1.00  1.00  0.01  0.00
0.00  0.27  1.00  1.00  1.00  1.00  1.00  0.01  0.00
$beta by ik, ith
0.00  0.27  1.00  1.00  1.00  1.00  1.00  0.01  0.00
0.00  0.27  1.00  1.00  1.00  1.00  1.00  0.01  0.00
0.00  0.27  1.00  1.00  1.00  1.00  1.00  0.01  0.00
0.00  0.27  1.00  1.00  1.00  1.00  1.00  0.01  0.00
0.00  0.27  1.00  1.00  1.00  1.00  1.00  0.01  0.00
$ ilon ilat of the cell. lon: 8.58331973, lat: 31.8048437
74   1
$ sizes of the cell in km
    75.595       72.779       75.627       78.043       75.595       72.779       75.627       78.043       75.595
$ mean alpha: 0.8460979843700872
$ mean beta: 0.8571111627014674
$alpha by ik, ith
0.31  1.00  1.00  1.00  1.00  1.00  1.00  1.00  0.31
0.31  1.00  1.00  1.00  1.00  1.00  1.00  1.00  0.31
0.31  1.00  1.00  1.00  1.00  1.00  1.00  1.00  0.31
0.31  1.00  1.00  1.00  1.00  1.00  1.00  1.00  0.31
0.31  1.00  1.00  1.00  1.00  1.00  1.00  1.00  0.31
$beta by ik, ith
0.36  1.00  1.00  1.00  1.00  1.00  1.00  1.00  0.36
0.36  1.00  1.00  1.00  1.00  1.00  1.00  1.00  0.36
0.36  1.00  1.00  1.00  1.00  1.00  1.00  1.00  0.36
0.36  1.00  1.00  1.00  1.00  1.00  1.00  1.00  0.36
0.36  1.00  1.00  1.00  1.00  1.00  1.00  1.00  0.36
$ ilon ilat of the cell. lon: 6.26502409, lat: 33.1236396
108   1
$ sizes of the cell in km
    77.105       78.065       73.579       77.748       77.105       78.065       73.579       77.748       77.105
$ mean alpha: 0.9886951930313068
$ mean beta: 0.9886951930313068
$alpha by ik, ith
1.00  1.00  1.00  1.00  0.90  1.00  1.00  1.00  1.00
1.00  1.00  1.00  1.00  0.90  1.00  1.00  1.00  1.00
1.00  1.00  1.00  1.00  0.90  1.00  1.00  1.00  1.00
1.00  1.00  1.00  1.00  0.90  1.00  1.00  1.00  1.00
1.00  1.00  1.00  1.00  0.90  1.00  1.00  1.00  1.00
$beta by ik, ith
1.00  1.00  1.00  1.00  0.90  1.00  1.00  1.00  1.00
1.00  1.00  1.00  1.00  0.90  1.00  1.00  1.00  1.00
1.00  1.00  1.00  1.00  0.90  1.00  1.00  1.00  1.00
1.00  1.00  1.00  1.00  0.90  1.00  1.00  1.00  1.00
1.00  1.00  1.00  1.00  0.90  1.00  1.00  1.00  1.00
$ ilon ilat of the cell. lon: 7.58521044, lat: 32.73290094
117   1
$ sizes of the cell in km
    84.738       84.079       84.112       87.523       84.738       84.079       84.112       87.523       84.738
$ mean alpha: 0.665284315348479
$ mean beta: 0.7612213848447636
$alpha by ik, ith
0.98  0.50  0.42  0.81  1.00  0.51  0.42  0.37  0.98
0.98  0.50  0.42  0.81  1.00  0.51  0.42  0.37  0.98
0.98  0.50  0.42  0.81  1.00  0.51  0.42  0.37  0.98
0.98  0.50  0.42  0.81  1.00  0.51  0.42  0.37  0.98
0.98  0.50  0.42  0.81  1.00  0.51  0.42  0.37  0.98
$beta by ik, ith
0.99  0.63  0.51  0.91  1.00  0.70  0.44  0.67  0.99
0.99  0.63  0.51  0.91  1.00  0.70  0.44  0.67  0.99
0.99  0.63  0.51  0.91  1.00  0.70  0.44  0.67  0.99
0.99  0.63  0.51  0.91  1.00  0.70  0.44  0.67  0.99
0.99  0.63  0.51  0.91  1.00  0.70  0.44  0.67  0.99
$ ilon ilat of the cell. lon: 8.3348198, lat: 32.70901244
118   1
$ sizes of the cell in km
    74.632       72.316       67.377       66.584       74.632       72.316       67.377       66.584       74.632
$ mean alpha: 0.7411198465645643
$ mean beta: 0.7665320090617443
$alpha by ik, ith
0.00  0.70  1.00  1.00  1.00  1.00  1.00  0.97  0.00
0.00  0.70  1.00  1.00  1.00  1.00  1.00  0.97  0.00
0.00  0.70  1.00  1.00  1.00  1.00  1.00  0.97  0.00
0.00  0.70  1.00  1.00  1.00  1.00  1.00  0.97  0.00
0.00  0.70  1.00  1.00  1.00  1.00  1.00  0.97  0.00
$beta by ik, ith
0.09  0.73  1.00  1.00  1.00  1.00  1.00  0.98  0.09
0.09  0.73  1.00  1.00  1.00  1.00  1.00  0.98  0.09
0.09  0.73  1.00  1.00  1.00  1.00  1.00  0.98  0.09
0.09  0.73  1.00  1.00  1.00  1.00  1.00  0.98  0.09
0.09  0.73  1.00  1.00  1.00  1.00  1.00  0.98  0.09
$ ilon ilat of the cell. lon: 7.69373187, lat: 33.3811302
119   1
$ sizes of the cell in km
    79.561       65.450       58.428       70.786       79.561       65.450       58.428       70.786       79.561
$ mean alpha: 0.5213938016990972
$ mean beta: 0.6224438427850033
$alpha by ik, ith
0.59  0.00  0.41  0.96  0.98  0.74  0.41  0.00  0.59
0.59  0.00  0.41  0.96  0.98  0.74  0.41  0.00  0.59
0.59  0.00  0.41  0.96  0.98  0.74  0.41  0.00  0.59
0.59  0.00  0.41  0.96  0.98  0.74  0.41  0.00  0.59
0.59  0.00  0.41  0.96  0.98  0.74  0.41  0.00  0.59
$beta by ik, ith
0.85  0.13  0.41  0.98  1.00  0.88  0.49  0.01  0.85
0.85  0.13  0.41  0.98  1.00  0.88  0.49  0.01  0.85
0.85  0.13  0.41  0.98  1.00  0.88  0.49  0.01  0.85
0.85  0.13  0.41  0.98  1.00  0.88  0.49  0.01  0.85
0.85  0.13  0.41  0.98  1.00  0.88  0.49  0.01  0.85
$ ilon ilat of the cell. lon: 7.20016564, lat: 33.54377089
121   1
$ sizes of the cell in km
    71.966       56.083       49.100       61.952       71.966       56.083       49.100       61.952       71.966
$ mean alpha: 0.538396420488439
$ mean beta: 0.6178204862384425
$alpha by ik, ith
1.00  0.94  0.45  0.00  0.00  0.00  0.45  1.00  1.00
1.00  0.94  0.45  0.00  0.00  0.00  0.45  1.00  1.00
1.00  0.94  0.45  0.00  0.00  0.00  0.45  1.00  1.00
1.00  0.94  0.45  0.00  0.00  0.00  0.45  1.00  1.00
1.00  0.94  0.45  0.00  0.00  0.00  0.45  1.00  1.00
$beta by ik, ith
1.00  0.99  0.62  0.00  0.41  0.00  0.54  1.00  1.00
1.00  0.99  0.62  0.00  0.41  0.00  0.54  1.00  1.00
1.00  0.99  0.62  0.00  0.41  0.00  0.54  1.00  1.00
1.00  0.99  0.62  0.00  0.41  0.00  0.54  1.00  1.00
1.00  0.99  0.62  0.00  0.41  0.00  0.54  1.00  1.00
$ ilon ilat of the cell. lon: 6.53735223, lat: 33.92666283
122   1
$ sizes of the cell in km
    83.194       65.075       58.129       73.268       83.194       65.075       58.129       73.268       83.194
$ mean alpha: 0.8888888888888888
$ mean beta: 0.8888888888888888
$alpha by ik, ith
1.00  1.00  1.00  1.00  0.00  1.00  1.00  1.00  1.00
1.00  1.00  1.00  1.00  0.00  1.00  1.00  1.00  1.00
1.00  1.00  1.00  1.00  0.00  1.00  1.00  1.00  1.00
1.00  1.00  1.00  1.00  0.00  1.00  1.00  1.00  1.00
1.00  1.00  1.00  1.00  0.00  1.00  1.00  1.00  1.00
$beta by ik, ith
1.00  1.00  1.00  1.00  0.00  1.00  1.00  1.00  1.00
1.00  1.00  1.00  1.00  0.00  1.00  1.00  1.00  1.00
1.00  1.00  1.00  1.00  0.00  1.00  1.00  1.00  1.00
1.00  1.00  1.00  1.00  0.00  1.00  1.00  1.00  1.00
1.00  1.00  1.00  1.00  0.00  1.00  1.00  1.00  1.00
$ ilon ilat of the cell. lon: 6.58736745, lat: 33.48175576
123   1
$ sizes of the cell in km
    62.233       51.127       52.403       62.038       62.233       51.127       52.403       62.038       62.233
$ mean alpha: 0.8951747353262238
$ mean beta: 0.8951747353262238
$alpha by ik, ith
1.00  1.00  1.00  1.00  0.06  1.00  1.00  1.00  1.00
1.00  1.00  1.00  1.00  0.06  1.00  1.00  1.00  1.00
1.00  1.00  1.00  1.00  0.06  1.00  1.00  1.00  1.00
1.00  1.00  1.00  1.00  0.06  1.00  1.00  1.00  1.00
1.00  1.00  1.00  1.00  0.06  1.00  1.00  1.00  1.00
$beta by ik, ith
1.00  1.00  1.00  1.00  0.06  1.00  1.00  1.00  1.00
1.00  1.00  1.00  1.00  0.06  1.00  1.00  1.00  1.00
1.00  1.00  1.00  1.00  0.06  1.00  1.00  1.00  1.00
1.00  1.00  1.00  1.00  0.06  1.00  1.00  1.00  1.00
1.00  1.00  1.00  1.00  0.06  1.00  1.00  1.00  1.00
$ ilon ilat of the cell. lon: 6.42581027, lat: 35.63028232
126   1
$ sizes of the cell in km
    75.500       81.081       80.506       75.849       75.500       81.081       80.506       75.849       75.500
$ mean alpha: 0.9544999669682733
$ mean beta: 0.9544999669682733
$alpha by ik, ith
1.00  1.00  1.00  1.00  0.59  1.00  1.00  1.00  1.00
1.00  1.00  1.00  1.00  0.59  1.00  1.00  1.00  1.00
1.00  1.00  1.00  1.00  0.59  1.00  1.00  1.00  1.00
1.00  1.00  1.00  1.00  0.59  1.00  1.00  1.00  1.00
1.00  1.00  1.00  1.00  0.59  1.00  1.00  1.00  1.00
$beta by ik, ith
1.00  1.00  1.00  1.00  0.59  1.00  1.00  1.00  1.00
1.00  1.00  1.00  1.00  0.59  1.00  1.00  1.00  1.00
1.00  1.00  1.00  1.00  0.59  1.00  1.00  1.00  1.00
1.00  1.00  1.00  1.00  0.59  1.00  1.00  1.00  1.00
1.00  1.00  1.00  1.00  0.59  1.00  1.00  1.00  1.00
$ ilon ilat of the cell. lon: 7.97381329, lat: 33.01854519
128   1
$ sizes of the cell in km
    56.146       44.292       48.628       44.741       56.146       44.292       48.628       44.741       56.146
$ mean alpha: 0.5555555555555556
$ mean beta: 0.5555555555555556
$alpha by ik, ith
0.00  0.00  1.00  1.00  1.00  1.00  1.00  0.00  0.00
0.00  0.00  1.00  1.00  1.00  1.00  1.00  0.00  0.00
0.00  0.00  1.00  1.00  1.00  1.00  1.00  0.00  0.00
0.00  0.00  1.00  1.00  1.00  1.00  1.00  0.00  0.00
0.00  0.00  1.00  1.00  1.00  1.00  1.00  0.00  0.00
$beta by ik, ith
0.00  0.00  1.00  1.00  1.00  1.00  1.00  0.00  0.00
0.00  0.00  1.00  1.00  1.00  1.00  1.00  0.00  0.00
0.00  0.00  1.00  1.00  1.00  1.00  1.00  0.00  0.00
0.00  0.00  1.00  1.00  1.00  1.00  1.00  0.00  0.00
0.00  0.00  1.00  1.00  1.00  1.00  1.00  0.00  0.00
$ ilon ilat of the cell. lon: 8.77477259, lat: 33.3611354
129   1
$ sizes of the cell in km
   112.848       95.675       86.019       99.052      112.848       95.675       86.019       99.052      112.848
$ mean alpha: 0.7222577892805243
$ mean beta: 0.7230770035879485
$alpha by ik, ith
0.00  1.00  1.00  1.00  1.00  1.00  1.00  0.50  0.00
0.00  1.00  1.00  1.00  1.00  1.00  1.00  0.50  0.00
0.00  1.00  1.00  1.00  1.00  1.00  1.00  0.50  0.00
0.00  1.00  1.00  1.00  1.00  1.00  1.00  0.50  0.00
0.00  1.00  1.00  1.00  1.00  1.00  1.00  0.50  0.00
$beta by ik, ith
0.00  1.00  1.00  1.00  1.00  1.00  1.00  0.51  0.00
0.00  1.00  1.00  1.00  1.00  1.00  1.00  0.51  0.00
0.00  1.00  1.00  1.00  1.00  1.00  1.00  0.51  0.00
0.00  1.00  1.00  1.00  1.00  1.00  1.00  0.51  0.00
0.00  1.00  1.00  1.00  1.00  1.00  1.00  0.51  0.00
$ ilon ilat of the cell. lon: 6.88827903, lat: 34.65246282
130   1
$ sizes of the cell in km
    72.507       63.400       75.912       91.384       72.507       63.400       75.912       91.384       72.507
$ mean alpha: 0.6666666666666666
$ mean beta: 0.6666666666666666
$alpha by ik, ith
1.00  1.00  1.00  0.00  0.00  0.00  1.00  1.00  1.00
1.00  1.00  1.00  0.00  0.00  0.00  1.00  1.00  1.00
1.00  1.00  1.00  0.00  0.00  0.00  1.00  1.00  1.00
1.00  1.00  1.00  0.00  0.00  0.00  1.00  1.00  1.00
1.00  1.00  1.00  0.00  0.00  0.00  1.00  1.00  1.00
$beta by ik, ith
1.00  1.00  1.00  0.00  0.00  0.00  1.00  1.00  1.00
1.00  1.00  1.00  0.00  0.00  0.00  1.00  1.00  1.00
1.00  1.00  1.00  0.00  0.00  0.00  1.00  1.00  1.00
1.00  1.00  1.00  0.00  0.00  0.00  1.00  1.00  1.00
1.00  1.00  1.00  0.00  0.00  0.00  1.00  1.00  1.00
$ ilon ilat of the cell. lon: 6.50689811, lat: 34.357992
131   1
$ sizes of the cell in km
    65.210       55.516       59.633       77.357       65.210       55.516       59.633       77.357       65.210
$ mean alpha: 0.9936790611747818
$ mean beta: 0.9936790611747818
$alpha by ik, ith
1.00  1.00  1.00  1.00  0.94  1.00  1.00  1.00  1.00
1.00  1.00  1.00  1.00  0.94  1.00  1.00  1.00  1.00
1.00  1.00  1.00  1.00  0.94  1.00  1.00  1.00  1.00
1.00  1.00  1.00  1.00  0.94  1.00  1.00  1.00  1.00
1.00  1.00  1.00  1.00  0.94  1.00  1.00  1.00  1.00
$beta by ik, ith
1.00  1.00  1.00  1.00  0.94  1.00  1.00  1.00  1.00
1.00  1.00  1.00  1.00  0.94  1.00  1.00  1.00  1.00
1.00  1.00  1.00  1.00  0.94  1.00  1.00  1.00  1.00
1.00  1.00  1.00  1.00  0.94  1.00  1.00  1.00  1.00
1.00  1.00  1.00  1.00  0.94  1.00  1.00  1.00  1.00
$ ilon ilat of the cell. lon: 8.25049098, lat: 33.97456151
143   1
$ sizes of the cell in km
    60.896       48.100       69.767       89.393       60.896       48.100       69.767       89.393       60.896
$ mean alpha: 0.6183939477994473
$ mean beta: 0.6668663649922617
$alpha by ik, ith
0.06  0.45  1.00  1.00  1.00  1.00  1.00  0.00  0.06
0.06  0.45  1.00  1.00  1.00  1.00  1.00  0.00  0.06
0.06  0.45  1.00  1.00  1.00  1.00  1.00  0.00  0.06
0.06  0.45  1.00  1.00  1.00  1.00  1.00  0.00  0.06
0.06  0.45  1.00  1.00  1.00  1.00  1.00  0.00  0.06
$beta by ik, ith
0.25  0.50  1.00  1.00  1.00  1.00  1.00  0.00  0.25
0.25  0.50  1.00  1.00  1.00  1.00  1.00  0.00  0.25
0.25  0.50  1.00  1.00  1.00  1.00  1.00  0.00  0.25
0.25  0.50  1.00  1.00  1.00  1.00  1.00  0.00  0.25
0.25  0.50  1.00  1.00  1.00  1.00  1.00  0.00  0.25
$ ilon ilat of the cell. lon: 7.79908596, lat: 33.78941788
144   1
$ sizes of the cell in km
    74.657       65.399       64.376       76.321       74.657       65.399       64.376       76.321       74.657
$ mean alpha: 0.44831763934534913
$ mean beta: 0.47537489457955906
$alpha by ik, ith
0.00  0.00  0.57  0.92  1.00  0.97  0.57  0.00  0.00
0.00  0.00  0.57  0.92  1.00  0.97  0.57  0.00  0.00
0.00  0.00  0.57  0.92  1.00  0.97  0.57  0.00  0.00
0.00  0.00  0.57  0.92  1.00  0.97  0.57  0.00  0.00
0.00  0.00  0.57  0.92  1.00  0.97  0.57  0.00  0.00
$beta by ik, ith
0.06  0.00  0.62  0.98  1.00  1.00  0.57  0.00  0.06
0.06  0.00  0.62  0.98  1.00  1.00  0.57  0.00  0.06
0.06  0.00  0.62  0.98  1.00  1.00  0.57  0.00  0.06
0.06  0.00  0.62  0.98  1.00  1.00  0.57  0.00  0.06
0.06  0.00  0.62  0.98  1.00  1.00  0.57  0.00  0.06
$ ilon ilat of the cell. lon: 6.64808124, lat: 35.13845887
148   1
$ sizes of the cell in km
    59.342       58.063       57.554       57.936       59.342       58.063       57.554       57.936       59.342
$ mean alpha: 0.8516262422115809
$ mean beta: 0.8569396717670538
$alpha by ik, ith
1.00  1.00  1.00  0.65  0.02  1.00  1.00  1.00  1.00
1.00  1.00  1.00  0.65  0.02  1.00  1.00  1.00  1.00
1.00  1.00  1.00  0.65  0.02  1.00  1.00  1.00  1.00
1.00  1.00  1.00  0.65  0.02  1.00  1.00  1.00  1.00
1.00  1.00  1.00  0.65  0.02  1.00  1.00  1.00  1.00
$beta by ik, ith
1.00  1.00  1.00  0.70  0.02  1.00  1.00  1.00  1.00
1.00  1.00  1.00  0.70  0.02  1.00  1.00  1.00  1.00
1.00  1.00  1.00  0.70  0.02  1.00  1.00  1.00  1.00
1.00  1.00  1.00  0.70  0.02  1.00  1.00  1.00  1.00
1.00  1.00  1.00  0.70  0.02  1.00  1.00  1.00  1.00
$ ilon ilat of the cell. lon: 7.46902711, lat: 35.13353261
149   1
$ sizes of the cell in km
    68.652       63.765       65.270       71.576       68.652       63.765       65.270       71.576       68.652
$ mean alpha: 0.5266576265622672
$ mean beta: 0.6584082934429706
$alpha by ik, ith
1.00  0.41  0.31  0.00  0.69  0.28  0.31  0.75  1.00
1.00  0.41  0.31  0.00  0.69  0.28  0.31  0.75  1.00
1.00  0.41  0.31  0.00  0.69  0.28  0.31  0.75  1.00
1.00  0.41  0.31  0.00  0.69  0.28  0.31  0.75  1.00
1.00  0.41  0.31  0.00  0.69  0.28  0.31  0.75  1.00
$beta by ik, ith
1.00  0.75  0.37  0.32  0.86  0.47  0.31  0.85  1.00
1.00  0.75  0.37  0.32  0.86  0.47  0.31  0.85  1.00
1.00  0.75  0.37  0.32  0.86  0.47  0.31  0.85  1.00
1.00  0.75  0.37  0.32  0.86  0.47  0.31  0.85  1.00
1.00  0.75  0.37  0.32  0.86  0.47  0.31  0.85  1.00
$ ilon ilat of the cell. lon: 7.60937609, lat: 34.53562104
150   1
$ sizes of the cell in km
    66.418       70.957       86.413       88.747       66.418       70.957       86.413       88.747       66.418
$ mean alpha: 0.5329252876523475
$ mean beta: 0.6853041410262911
$alpha by ik, ith
0.72  0.19  0.30  0.93  1.00  0.62  0.30  0.00  0.72
0.72  0.19  0.30  0.93  1.00  0.62  0.30  0.00  0.72
0.72  0.19  0.30  0.93  1.00  0.62  0.30  0.00  0.72
0.72  0.19  0.30  0.93  1.00  0.62  0.30  0.00  0.72
0.72  0.19  0.30  0.93  1.00  0.62  0.30  0.00  0.72
$beta by ik, ith
0.91  0.48  0.48  0.97  1.00  0.87  0.30  0.24  0.91
0.91  0.48  0.48  0.97  1.00  0.87  0.30  0.24  0.91
0.91  0.48  0.48  0.97  1.00  0.87  0.30  0.24  0.91
0.91  0.48  0.48  0.97  1.00  0.87  0.30  0.24  0.91
0.91  0.48  0.48  0.97  1.00  0.87  0.30  0.24  0.91
$ ilon ilat of the cell. lon: 7.28289999, lat: 35.86613972
151   1
$ sizes of the cell in km
    74.533       67.675       60.783       66.331       74.533       67.675       60.783       66.331       74.533
$ mean alpha: 0.5397756225860868
$ mean beta: 0.6483227377734103
$alpha by ik, ith
1.00  0.81  0.39  0.00  0.36  0.00  0.39  0.91  1.00
1.00  0.81  0.39  0.00  0.36  0.00  0.39  0.91  1.00
1.00  0.81  0.39  0.00  0.36  0.00  0.39  0.91  1.00
1.00  0.81  0.39  0.00  0.36  0.00  0.39  0.91  1.00
1.00  0.81  0.39  0.00  0.36  0.00  0.39  0.91  1.00
$beta by ik, ith
1.00  0.94  0.54  0.34  0.65  0.00  0.39  0.97  1.00
1.00  0.94  0.54  0.34  0.65  0.00  0.39  0.97  1.00
1.00  0.94  0.54  0.34  0.65  0.00  0.39  0.97  1.00
1.00  0.94  0.54  0.34  0.65  0.00  0.39  0.97  1.00
1.00  0.94  0.54  0.34  0.65  0.00  0.39  0.97  1.00
$ ilon ilat of the cell. lon: 7.061251, lat: 35.44488195
152   1
$ sizes of the cell in km
    57.641       50.943       50.376       54.599       57.641       50.943       50.376       54.599       57.641
$ mean alpha: 0.6666666666666666
$ mean beta: 0.6666666666666666
$alpha by ik, ith
1.00  1.00  1.00  0.00  0.00  0.00  1.00  1.00  1.00
1.00  1.00  1.00  0.00  0.00  0.00  1.00  1.00  1.00
1.00  1.00  1.00  0.00  0.00  0.00  1.00  1.00  1.00
1.00  1.00  1.00  0.00  0.00  0.00  1.00  1.00  1.00
1.00  1.00  1.00  0.00  0.00  0.00  1.00  1.00  1.00
$beta by ik, ith
1.00  1.00  1.00  0.00  0.00  0.00  1.00  1.00  1.00
1.00  1.00  1.00  0.00  0.00  0.00  1.00  1.00  1.00
1.00  1.00  1.00  0.00  0.00  0.00  1.00  1.00  1.00
1.00  1.00  1.00  0.00  0.00  0.00  1.00  1.00  1.00
1.00  1.00  1.00  0.00  0.00  0.00  1.00  1.00  1.00
$ ilon ilat of the cell. lon: 7.60143733, lat: 35.53920776
153   1
$ sizes of the cell in km
    58.396       57.769       62.561       64.303       58.396       57.769       62.561       64.303       58.396
$ mean alpha: 0.5099258072736029
$ mean beta: 0.6423891739252604
$alpha by ik, ith
0.81  0.00  0.19  0.68  1.00  0.90  0.19  0.00  0.81
0.81  0.00  0.19  0.68  1.00  0.90  0.19  0.00  0.81
0.81  0.00  0.19  0.68  1.00  0.90  0.19  0.00  0.81
0.81  0.00  0.19  0.68  1.00  0.90  0.19  0.00  0.81
0.81  0.00  0.19  0.68  1.00  0.90  0.19  0.00  0.81
$beta by ik, ith
0.93  0.13  0.34  0.90  1.00  0.96  0.27  0.32  0.93
0.93  0.13  0.34  0.90  1.00  0.96  0.27  0.32  0.93
0.93  0.13  0.34  0.90  1.00  0.96  0.27  0.32  0.93
0.93  0.13  0.34  0.90  1.00  0.96  0.27  0.32  0.93
0.93  0.13  0.34  0.90  1.00  0.96  0.27  0.32  0.93
$ ilon ilat of the cell. lon: 8.12561436, lat: 35.00121678
165   1
$ sizes of the cell in km
    69.854       66.340       73.679       76.776       69.854       66.340       73.679       76.776       69.854
$ mean alpha: 0.5555555555555556
$ mean beta: 0.5814436782399135
$alpha by ik, ith
0.00  0.00  1.00  1.00  1.00  1.00  1.00  0.00  0.00
0.00  0.00  1.00  1.00  1.00  1.00  1.00  0.00  0.00
0.00  0.00  1.00  1.00  1.00  1.00  1.00  0.00  0.00
0.00  0.00  1.00  1.00  1.00  1.00  1.00  0.00  0.00
0.00  0.00  1.00  1.00  1.00  1.00  1.00  0.00  0.00
$beta by ik, ith
0.12  0.00  1.00  1.00  1.00  1.00  1.00  0.00  0.12
0.12  0.00  1.00  1.00  1.00  1.00  1.00  0.00  0.12
0.12  0.00  1.00  1.00  1.00  1.00  1.00  0.00  0.12
0.12  0.00  1.00  1.00  1.00  1.00  1.00  0.00  0.12
0.12  0.00  1.00  1.00  1.00  1.00  1.00  0.00  0.12
$ ilon ilat of the cell. lon: 8.16901739, lat: 34.53864069
167   1
$ sizes of the cell in km
    50.554       50.505       54.670       58.006       50.554       50.505       54.670       58.006       50.554
$ mean alpha: 0.7331749460755148
$ mean beta: 0.7398304462022339
$alpha by ik, ith
0.00  0.89  1.00  1.00  1.00  1.00  1.00  0.71  0.00
0.00  0.89  1.00  1.00  1.00  1.00  1.00  0.71  0.00
0.00  0.89  1.00  1.00  1.00  1.00  1.00  0.71  0.00
0.00  0.89  1.00  1.00  1.00  1.00  1.00  0.71  0.00
0.00  0.89  1.00  1.00  1.00  1.00  1.00  0.71  0.00
$beta by ik, ith
0.00  0.89  1.00  1.00  1.00  1.00  1.00  0.77  0.00
0.00  0.89  1.00  1.00  1.00  1.00  1.00  0.77  0.00
0.00  0.89  1.00  1.00  1.00  1.00  1.00  0.77  0.00
0.00  0.89  1.00  1.00  1.00  1.00  1.00  0.77  0.00
0.00  0.89  1.00  1.00  1.00  1.00  1.00  0.77  0.00
$ ilon ilat of the cell. lon: 6.8, lat: 38.8
169   1
$ sizes of the cell in km
    52.688       30.591       29.546       41.301       52.688       30.591       29.546       41.301       52.688
$ mean alpha: 0.7879693866971295
$ mean beta: 0.7879693866971295
$alpha by ik, ith
1.00  1.00  1.00  0.09  0.00  1.00  1.00  1.00  1.00
1.00  1.00  1.00  0.09  0.00  1.00  1.00  1.00  1.00
1.00  1.00  1.00  0.09  0.00  1.00  1.00  1.00  1.00
1.00  1.00  1.00  0.09  0.00  1.00  1.00  1.00  1.00
1.00  1.00  1.00  0.09  0.00  1.00  1.00  1.00  1.00
$beta by ik, ith
1.00  1.00  1.00  0.09  0.00  1.00  1.00  1.00  1.00
1.00  1.00  1.00  0.09  0.00  1.00  1.00  1.00  1.00
1.00  1.00  1.00  0.09  0.00  1.00  1.00  1.00  1.00
1.00  1.00  1.00  0.09  0.00  1.00  1.00  1.00  1.00
1.00  1.00  1.00  0.09  0.00  1.00  1.00  1.00  1.00
$ ilon ilat of the cell. lon: 6.69506504, lat: 36.19234588
188   1
$ sizes of the cell in km
    69.679       69.902       73.117       72.632       69.679       69.902       73.117       72.632       69.679
$ mean alpha: 0.7727094591521719
$ mean beta: 0.7727094591521719
$alpha by ik, ith
1.00  1.00  1.00  0.57  0.00  0.38  1.00  1.00  1.00
1.00  1.00  1.00  0.57  0.00  0.38  1.00  1.00  1.00
1.00  1.00  1.00  0.57  0.00  0.38  1.00  1.00  1.00
1.00  1.00  1.00  0.57  0.00  0.38  1.00  1.00  1.00
1.00  1.00  1.00  0.57  0.00  0.38  1.00  1.00  1.00
$beta by ik, ith
1.00  1.00  1.00  0.57  0.00  0.38  1.00  1.00  1.00
1.00  1.00  1.00  0.57  0.00  0.38  1.00  1.00  1.00
1.00  1.00  1.00  0.57  0.00  0.38  1.00  1.00  1.00
1.00  1.00  1.00  0.57  0.00  0.38  1.00  1.00  1.00
1.00  1.00  1.00  0.57  0.00  0.38  1.00  1.00  1.00
$ ilon ilat of the cell. lon: 8.4150302, lat: 37.05166819
189   1
$ sizes of the cell in km
    60.344       70.972       73.380       54.594       60.344       70.972       73.380       54.594       60.344
$ mean alpha: 0.8199800494124166
$ mean beta: 0.8303763296456801
$alpha by ik, ith
0.25  0.88  1.00  1.00  1.00  1.00  1.00  1.00  0.25
0.25  0.88  1.00  1.00  1.00  1.00  1.00  1.00  0.25
0.25  0.88  1.00  1.00  1.00  1.00  1.00  1.00  0.25
0.25  0.88  1.00  1.00  1.00  1.00  1.00  1.00  0.25
0.25  0.88  1.00  1.00  1.00  1.00  1.00  1.00  0.25
$beta by ik, ith
0.30  0.88  1.00  1.00  1.00  1.00  1.00  1.00  0.30
0.30  0.88  1.00  1.00  1.00  1.00  1.00  1.00  0.30
0.30  0.88  1.00  1.00  1.00  1.00  1.00  1.00  0.30
0.30  0.88  1.00  1.00  1.00  1.00  1.00  1.00  0.30
0.30  0.88  1.00  1.00  1.00  1.00  1.00  1.00  0.30
$ ilon ilat of the cell. lon: 7.31349407, lat: 36.98037086
190   1
$ sizes of the cell in km
    54.472       52.131       52.508       58.198       54.472       52.131       52.508       58.198       54.472
$ mean alpha: 0.3311019329859035
$ mean beta: 0.5437364670274556
$alpha by ik, ith
0.77  0.56  0.14  0.00  0.00  0.00  0.14  0.59  0.77
0.77  0.56  0.14  0.00  0.00  0.00  0.14  0.59  0.77
0.77  0.56  0.14  0.00  0.00  0.00  0.14  0.59  0.77
0.77  0.56  0.14  0.00  0.00  0.00  0.14  0.59  0.77
0.77  0.56  0.14  0.00  0.00  0.00  0.14  0.59  0.77
$beta by ik, ith
0.96  0.91  0.27  0.07  0.55  0.11  0.14  0.91  0.96
0.96  0.91  0.27  0.07  0.55  0.11  0.14  0.91  0.96
0.96  0.91  0.27  0.07  0.55  0.11  0.14  0.91  0.96
0.96  0.91  0.27  0.07  0.55  0.11  0.14  0.91  0.96
0.96  0.91  0.27  0.07  0.55  0.11  0.14  0.91  0.96
$ ilon ilat of the cell. lon: 6.73140592, lat: 36.96601393
191   1
$ sizes of the cell in km
    63.915       73.187       81.824       74.753       63.915       73.187       81.824       74.753       63.915
$ mean alpha: 0.6666666666666666
$ mean beta: 0.6666666666666666
$alpha by ik, ith
1.00  1.00  1.00  0.00  0.00  0.00  1.00  1.00  1.00
1.00  1.00  1.00  0.00  0.00  0.00  1.00  1.00  1.00
1.00  1.00  1.00  0.00  0.00  0.00  1.00  1.00  1.00
1.00  1.00  1.00  0.00  0.00  0.00  1.00  1.00  1.00
1.00  1.00  1.00  0.00  0.00  0.00  1.00  1.00  1.00
$beta by ik, ith
1.00  1.00  1.00  0.00  0.00  0.00  1.00  1.00  1.00
1.00  1.00  1.00  0.00  0.00  0.00  1.00  1.00  1.00
1.00  1.00  1.00  0.00  0.00  0.00  1.00  1.00  1.00
1.00  1.00  1.00  0.00  0.00  0.00  1.00  1.00  1.00
1.00  1.00  1.00  0.00  0.00  0.00  1.00  1.00  1.00
$ ilon ilat of the cell. lon: 7.30697416, lat: 36.42308965
192   1
$ sizes of the cell in km
    73.667       66.829       70.432       72.550       73.667       66.829       70.432       72.550       73.667
$ mean alpha: 0.5382587396367274
$ mean beta: 0.6611256568004437
$alpha by ik, ith
1.00  0.84  0.39  0.00  0.46  0.00  0.39  0.76  1.00
1.00  0.84  0.39  0.00  0.46  0.00  0.39  0.76  1.00
1.00  0.84  0.39  0.00  0.46  0.00  0.39  0.76  1.00
1.00  0.84  0.39  0.00  0.46  0.00  0.39  0.76  1.00
1.00  0.84  0.39  0.00  0.46  0.00  0.39  0.76  1.00
$beta by ik, ith
1.00  0.93  0.56  0.40  0.71  0.03  0.39  0.94  1.00
1.00  0.93  0.56  0.40  0.71  0.03  0.39  0.94  1.00
1.00  0.93  0.56  0.40  0.71  0.03  0.39  0.94  1.00
1.00  0.93  0.56  0.40  0.71  0.03  0.39  0.94  1.00
1.00  0.93  0.56  0.40  0.71  0.03  0.39  0.94  1.00
$ ilon ilat of the cell. lon: 7.89430197, lat: 36.69703371
193   1
$ sizes of the cell in km
    63.807       62.316       64.448       63.547       63.807       62.316       64.448       63.547       63.807
$ mean alpha: 0.490324969299797
$ mean beta: 0.5853122904823047
$alpha by ik, ith
0.00  0.00  0.71  1.00  1.00  1.00  0.71  0.00  0.00
0.00  0.00  0.71  1.00  1.00  1.00  0.71  0.00  0.00
0.00  0.00  0.71  1.00  1.00  1.00  0.71  0.00  0.00
0.00  0.00  0.71  1.00  1.00  1.00  0.71  0.00  0.00
0.00  0.00  0.71  1.00  1.00  1.00  0.71  0.00  0.00
$beta by ik, ith
0.35  0.00  0.82  1.00  1.00  1.00  0.76  0.00  0.35
0.35  0.00  0.82  1.00  1.00  1.00  0.76  0.00  0.35
0.35  0.00  0.82  1.00  1.00  1.00  0.76  0.00  0.35
0.35  0.00  0.82  1.00  1.00  1.00  0.76  0.00  0.35
0.35  0.00  0.82  1.00  1.00  1.00  0.76  0.00  0.35
$ ilon ilat of the cell. lon: 8.7919135, lat: 36.23123886
194   1
$ sizes of the cell in km
    72.628       69.700       69.212       71.082       72.628       69.700       69.212       71.082       72.628
$ mean alpha: 0.9217596083994377
$ mean beta: 0.9217596083994377
$alpha by ik, ith
0.65  1.00  1.00  1.00  1.00  1.00  1.00  1.00  0.65
0.65  1.00  1.00  1.00  1.00  1.00  1.00  1.00  0.65
0.65  1.00  1.00  1.00  1.00  1.00  1.00  1.00  0.65
0.65  1.00  1.00  1.00  1.00  1.00  1.00  1.00  0.65
0.65  1.00  1.00  1.00  1.00  1.00  1.00  1.00  0.65
$beta by ik, ith
0.65  1.00  1.00  1.00  1.00  1.00  1.00  1.00  0.65
0.65  1.00  1.00  1.00  1.00  1.00  1.00  1.00  0.65
0.65  1.00  1.00  1.00  1.00  1.00  1.00  1.00  0.65
0.65  1.00  1.00  1.00  1.00  1.00  1.00  1.00  0.65
0.65  1.00  1.00  1.00  1.00  1.00  1.00  1.00  0.65
$ ilon ilat of the cell. lon: 8.43739632, lat: 36.58901871
195   1
$ sizes of the cell in km
    65.750       74.719       66.054       60.552       65.750       74.719       66.054       60.552       65.750
$ mean alpha: 0.810151210489146
$ mean beta: 0.8212676853301417
$alpha by ik, ith
0.34  0.62  1.00  1.00  1.00  1.00  1.00  1.00  0.34
0.34  0.62  1.00  1.00  1.00  1.00  1.00  1.00  0.34
0.34  0.62  1.00  1.00  1.00  1.00  1.00  1.00  0.34
0.34  0.62  1.00  1.00  1.00  1.00  1.00  1.00  0.34
0.34  0.62  1.00  1.00  1.00  1.00  1.00  1.00  0.34
$beta by ik, ith
0.38  0.63  1.00  1.00  1.00  1.00  1.00  1.00  0.38
0.38  0.63  1.00  1.00  1.00  1.00  1.00  1.00  0.38
0.38  0.63  1.00  1.00  1.00  1.00  1.00  1.00  0.38
0.38  0.63  1.00  1.00  1.00  1.00  1.00  1.00  0.38
0.38  0.63  1.00  1.00  1.00  1.00  1.00  1.00  0.38
$ ilon ilat of the cell. lon: 8.01776447, lat: 36.13128573
196   1
$ sizes of the cell in km
    83.612       81.486       85.957       88.600       83.612       81.486       85.957       88.600       83.612
$ mean alpha: 0.5228744256161012
$ mean beta: 0.5717663857521491
$alpha by ik, ith
0.00  0.00  0.85  1.00  1.00  1.00  0.85  0.00  0.00
0.00  0.00  0.85  1.00  1.00  1.00  0.85  0.00  0.00
0.00  0.00  0.85  1.00  1.00  1.00  0.85  0.00  0.00
0.00  0.00  0.85  1.00  1.00  1.00  0.85  0.00  0.00
0.00  0.00  0.85  1.00  1.00  1.00  0.85  0.00  0.00
$beta by ik, ith
0.20  0.00  0.89  1.00  1.00  1.00  0.87  0.00  0.20
0.20  0.00  0.89  1.00  1.00  1.00  0.87  0.00  0.20
0.20  0.00  0.89  1.00  1.00  1.00  0.87  0.00  0.20
0.20  0.00  0.89  1.00  1.00  1.00  0.87  0.00  0.20
0.20  0.00  0.89  1.00  1.00  1.00  0.87  0.00  0.20
$ ilon ilat of the cell. lon: 8.73733589, lat: 35.69440292
200   1
$ sizes of the cell in km
    71.077       60.066       60.854       71.563       71.077       60.066       60.854       71.563       71.077
$ mean alpha: 0.9474755892655305
$ mean beta: 0.9474755892655305
$alpha by ik, ith
0.76  1.00  1.00  1.00  1.00  1.00  1.00  1.00  0.76
0.76  1.00  1.00  1.00  1.00  1.00  1.00  1.00  0.76
0.76  1.00  1.00  1.00  1.00  1.00  1.00  1.00  0.76
0.76  1.00  1.00  1.00  1.00  1.00  1.00  1.00  0.76
0.76  1.00  1.00  1.00  1.00  1.00  1.00  1.00  0.76
$beta by ik, ith
0.76  1.00  1.00  1.00  1.00  1.00  1.00  1.00  0.76
0.76  1.00  1.00  1.00  1.00  1.00  1.00  1.00  0.76
0.76  1.00  1.00  1.00  1.00  1.00  1.00  1.00  0.76
0.76  1.00  1.00  1.00  1.00  1.00  1.00  1.00  0.76
0.76  1.00  1.00  1.00  1.00  1.00  1.00  1.00  0.76
$ ilon ilat of the cell. lon: 8.1, lat: 38.8
238   1
$ sizes of the cell in km
    51.827       38.466       34.653       39.526       51.827       38.466       34.653       39.526       51.827
$ mean alpha: 0.6666666666666666
$ mean beta: 0.6666666666666666
$alpha by ik, ith
0.00  0.00  1.00  1.00  1.00  1.00  1.00  1.00  0.00
0.00  0.00  1.00  1.00  1.00  1.00  1.00  1.00  0.00
0.00  0.00  1.00  1.00  1.00  1.00  1.00  1.00  0.00
0.00  0.00  1.00  1.00  1.00  1.00  1.00  1.00  0.00
0.00  0.00  1.00  1.00  1.00  1.00  1.00  1.00  0.00
$beta by ik, ith
0.00  0.00  1.00  1.00  1.00  1.00  1.00  1.00  0.00
0.00  0.00  1.00  1.00  1.00  1.00  1.00  1.00  0.00
0.00  0.00  1.00  1.00  1.00  1.00  1.00  1.00  0.00
0.00  0.00  1.00  1.00  1.00  1.00  1.00  1.00  0.00
0.00  0.00  1.00  1.00  1.00  1.00  1.00  1.00  0.00
$ ilon ilat of the cell. lon: 7.06736494, lat: 37.89224483
239   1
$ sizes of the cell in km
    66.117       68.698       73.325       71.329       66.117       68.698       73.325       71.329       66.117
$ mean alpha: 0.573031164118628
$ mean beta: 0.6235478259117194
$alpha by ik, ith
1.00  1.00  0.55  0.00  0.06  0.00  0.55  1.00  1.00
1.00  1.00  0.55  0.00  0.06  0.00  0.55  1.00  1.00
1.00  1.00  0.55  0.00  0.06  0.00  0.55  1.00  1.00
1.00  1.00  0.55  0.00  0.06  0.00  0.55  1.00  1.00
1.00  1.00  0.55  0.00  0.06  0.00  0.55  1.00  1.00
$beta by ik, ith
1.00  1.00  0.61  0.00  0.37  0.00  0.63  1.00  1.00
1.00  1.00  0.61  0.00  0.37  0.00  0.63  1.00  1.00
1.00  1.00  0.61  0.00  0.37  0.00  0.63  1.00  1.00
1.00  1.00  0.61  0.00  0.37  0.00  0.63  1.00  1.00
1.00  1.00  0.61  0.00  0.37  0.00  0.63  1.00  1.00
$ ilon ilat of the cell. lon: 6.7917194, lat: 37.4559701
240   1
$ sizes of the cell in km
    46.180       53.939       56.457       49.890       46.180       53.939       56.457       49.890       46.180
$ mean alpha: 0.7726584456188083
$ mean beta: 0.7726584456188083
$alpha by ik, ith
1.00  1.00  1.00  0.73  0.22  0.00  1.00  1.00  1.00
1.00  1.00  1.00  0.73  0.22  0.00  1.00  1.00  1.00
1.00  1.00  1.00  0.73  0.22  0.00  1.00  1.00  1.00
1.00  1.00  1.00  0.73  0.22  0.00  1.00  1.00  1.00
1.00  1.00  1.00  0.73  0.22  0.00  1.00  1.00  1.00
$beta by ik, ith
1.00  1.00  1.00  0.73  0.22  0.00  1.00  1.00  1.00
1.00  1.00  1.00  0.73  0.22  0.00  1.00  1.00  1.00
1.00  1.00  1.00  0.73  0.22  0.00  1.00  1.00  1.00
1.00  1.00  1.00  0.73  0.22  0.00  1.00  1.00  1.00
1.00  1.00  1.00  0.73  0.22  0.00  1.00  1.00  1.00
$ ilon ilat of the cell. lon: 6.46796947, lat: 37.87454519
313   1
$ sizes of the cell in km
    65.199       67.681       58.510       59.244       65.199       67.681       58.510       59.244       65.199
$ mean alpha: 0.9017916549762633
$ mean beta: 0.9017916549762633
$alpha by ik, ith
1.00  1.00  1.00  1.00  0.12  1.00  1.00  1.00  1.00
1.00  1.00  1.00  1.00  0.12  1.00  1.00  1.00  1.00
1.00  1.00  1.00  1.00  0.12  1.00  1.00  1.00  1.00
1.00  1.00  1.00  1.00  0.12  1.00  1.00  1.00  1.00
1.00  1.00  1.00  1.00  0.12  1.00  1.00  1.00  1.00
$beta by ik, ith
1.00  1.00  1.00  1.00  0.12  1.00  1.00  1.00  1.00
1.00  1.00  1.00  1.00  0.12  1.00  1.00  1.00  1.00
1.00  1.00  1.00  1.00  0.12  1.00  1.00  1.00  1.00
1.00  1.00  1.00  1.00  0.12  1.00  1.00  1.00  1.00
1.00  1.00  1.00  1.00  0.12  1.00  1.00  1.00  1.00
$ ilon ilat of the cell. lon: 6.74938954, lat: 38.3088152
314   1
$ sizes of the cell in km
    76.258       71.954       67.373       77.213       76.258       71.954       67.373       77.213       76.258
$ mean alpha: 0.8545908587355364
$ mean beta: 0.8545908587355364
$alpha by ik, ith
1.00  1.00  1.00  0.46  0.23  1.00  1.00  1.00  1.00
1.00  1.00  1.00  0.46  0.23  1.00  1.00  1.00  1.00
1.00  1.00  1.00  0.46  0.23  1.00  1.00  1.00  1.00
1.00  1.00  1.00  0.46  0.23  1.00  1.00  1.00  1.00
1.00  1.00  1.00  0.46  0.23  1.00  1.00  1.00  1.00
$beta by ik, ith
1.00  1.00  1.00  0.46  0.23  1.00  1.00  1.00  1.00
1.00  1.00  1.00  0.46  0.23  1.00  1.00  1.00  1.00
1.00  1.00  1.00  0.46  0.23  1.00  1.00  1.00  1.00
1.00  1.00  1.00  0.46  0.23  1.00  1.00  1.00  1.00
1.00  1.00  1.00  0.46  0.23  1.00  1.00  1.00  1.00
$ ilon ilat of the cell. lon: 7.45, lat: 38.8
315   1
$ sizes of the cell in km
    46.044       30.188       32.871       45.659       46.044       30.188       32.871       45.659       46.044
$ mean alpha: 0.7407560785639289
$ mean beta: 0.8189074531707744
$alpha by ik, ith
1.00  0.27  0.15  0.25  1.00  1.00  1.00  1.00  1.00
1.00  0.27  0.15  0.25  1.00  1.00  1.00  1.00  1.00
1.00  0.27  0.15  0.25  1.00  1.00  1.00  1.00  1.00
1.00  0.27  0.15  0.25  1.00  1.00  1.00  1.00  1.00
1.00  0.27  0.15  0.25  1.00  1.00  1.00  1.00  1.00
$beta by ik, ith
1.00  0.50  0.27  0.60  1.00  1.00  1.00  1.00  1.00
1.00  0.50  0.27  0.60  1.00  1.00  1.00  1.00  1.00
1.00  0.50  0.27  0.60  1.00  1.00  1.00  1.00  1.00
1.00  0.50  0.27  0.60  1.00  1.00  1.00  1.00  1.00
1.00  0.50  0.27  0.60  1.00  1.00  1.00  1.00  1.00
$ ilon ilat of the cell. lon: 7.775, lat: 38.19653973
317   1
$ sizes of the cell in km
    68.214       77.081       82.742       77.108       68.214       77.081       82.742       77.108       68.214
$ mean alpha: 0.578920296828094
$ mean beta: 0.6779013645980185
$alpha by ik, ith
0.00  0.00  0.35  0.86  1.00  1.00  1.00  1.00  0.00
0.00  0.00  0.35  0.86  1.00  1.00  1.00  1.00  0.00
0.00  0.00  0.35  0.86  1.00  1.00  1.00  1.00  0.00
0.00  0.00  0.35  0.86  1.00  1.00  1.00  1.00  0.00
0.00  0.00  0.35  0.86  1.00  1.00  1.00  1.00  0.00
$beta by ik, ith
0.35  0.00  0.41  0.98  1.00  1.00  1.00  1.00  0.35
0.35  0.00  0.41  0.98  1.00  1.00  1.00  1.00  0.35
0.35  0.00  0.41  0.98  1.00  1.00  1.00  1.00  0.35
0.35  0.00  0.41  0.98  1.00  1.00  1.00  1.00  0.35
0.35  0.00  0.41  0.98  1.00  1.00  1.00  1.00  0.35
$ ilon ilat of the cell. lon: 7.28181585, lat: 38.37586562
320   1
$ sizes of the cell in km
    48.524       51.868       53.954       54.344       48.524       51.868       53.954       54.344       48.524
$ mean alpha: 0.7211543639505588
$ mean beta: 0.7653313592824212
$alpha by ik, ith
1.00  1.00  0.49  0.00  0.00  1.00  1.00  1.00  1.00
1.00  1.00  0.49  0.00  0.00  1.00  1.00  1.00  1.00
1.00  1.00  0.49  0.00  0.00  1.00  1.00  1.00  1.00
1.00  1.00  0.49  0.00  0.00  1.00  1.00  1.00  1.00
1.00  1.00  0.49  0.00  0.00  1.00  1.00  1.00  1.00
$beta by ik, ith
1.00  1.00  0.64  0.00  0.25  1.00  1.00  1.00  1.00
1.00  1.00  0.64  0.00  0.25  1.00  1.00  1.00  1.00
1.00  1.00  0.64  0.00  0.25  1.00  1.00  1.00  1.00
1.00  1.00  0.64  0.00  0.25  1.00  1.00  1.00  1.00
1.00  1.00  0.64  0.00  0.25  1.00  1.00  1.00  1.00
$ ilon ilat of the cell. lon: 7.73807143, lat: 37.53790307
321   1
$ sizes of the cell in km
    56.696       58.231       59.834       61.726       56.696       58.231       59.834       61.726       56.696
$ mean alpha: 0.3548462952144726
$ mean beta: 0.5203345675849633
$alpha by ik, ith
0.03  0.00  0.21  0.95  0.97  0.79  0.21  0.00  0.03
0.03  0.00  0.21  0.95  0.97  0.79  0.21  0.00  0.03
0.03  0.00  0.21  0.95  0.97  0.79  0.21  0.00  0.03
0.03  0.00  0.21  0.95  0.97  0.79  0.21  0.00  0.03
0.03  0.00  0.21  0.95  0.97  0.79  0.21  0.00  0.03
$beta by ik, ith
0.57  0.00  0.35  0.99  0.99  0.97  0.25  0.00  0.57
0.57  0.00  0.35  0.99  0.99  0.97  0.25  0.00  0.57
0.57  0.00  0.35  0.99  0.99  0.97  0.25  0.00  0.57
0.57  0.00  0.35  0.99  0.99  0.97  0.25  0.00  0.57
0.57  0.00  0.35  0.99  0.99  0.97  0.25  0.00  0.57
$ ilon ilat of the cell. lon: 7.90280546, lat: 37.12852948
322   1
$ sizes of the cell in km
    65.017       64.936       64.312       59.087       65.017       64.936       64.312       59.087       65.017
$ mean alpha: 0.48459791606641106
$ mean beta: 0.5759349141937552
$alpha by ik, ith
0.00  0.00  0.68  1.00  1.00  1.00  0.68  0.00  0.00
0.00  0.00  0.68  1.00  1.00  1.00  0.68  0.00  0.00
0.00  0.00  0.68  1.00  1.00  1.00  0.68  0.00  0.00
0.00  0.00  0.68  1.00  1.00  1.00  0.68  0.00  0.00
0.00  0.00  0.68  1.00  1.00  1.00  0.68  0.00  0.00
$beta by ik, ith
0.37  0.00  0.75  1.00  1.00  1.00  0.70  0.00  0.37
0.37  0.00  0.75  1.00  1.00  1.00  0.70  0.00  0.37
0.37  0.00  0.75  1.00  1.00  1.00  0.70  0.00  0.37
0.37  0.00  0.75  1.00  1.00  1.00  0.70  0.00  0.37
0.37  0.00  0.75  1.00  1.00  1.00  0.70  0.00  0.37
$ ilon ilat of the cell. lon: 8.30975368, lat: 38.36047847
323   1
$ sizes of the cell in km
    48.577       57.242       62.234       55.425       48.577       57.242       62.234       55.425       48.577
$ mean alpha: 0.7674818624836214
$ mean beta: 0.7720326617557091
$alpha by ik, ith
0.13  0.64  1.00  1.00  1.00  1.00  1.00  1.00  0.13
0.13  0.64  1.00  1.00  1.00  1.00  1.00  1.00  0.13
0.13  0.64  1.00  1.00  1.00  1.00  1.00  1.00  0.13
0.13  0.64  1.00  1.00  1.00  1.00  1.00  1.00  0.13
0.13  0.64  1.00  1.00  1.00  1.00  1.00  1.00  0.13
$beta by ik, ith
0.13  0.68  1.00  1.00  1.00  1.00  1.00  1.00  0.13
0.13  0.68  1.00  1.00  1.00  1.00  1.00  1.00  0.13
0.13  0.68  1.00  1.00  1.00  1.00  1.00  1.00  0.13
0.13  0.68  1.00  1.00  1.00  1.00  1.00  1.00  0.13
0.13  0.68  1.00  1.00  1.00  1.00  1.00  1.00  0.13
$ ilon ilat of the cell. lon: 8.37855741, lat: 37.77978777
324   1
$ sizes of the cell in km
    73.145       84.260       89.545       78.651       73.145       84.260       89.545       78.651       73.145
$ mean alpha: 0.5843434289751004
$ mean beta: 0.5843434289751004
$alpha by ik, ith
0.00  0.25  1.00  1.00  1.00  1.00  1.00  0.01  0.00
0.00  0.25  1.00  1.00  1.00  1.00  1.00  0.01  0.00
0.00  0.25  1.00  1.00  1.00  1.00  1.00  0.01  0.00
0.00  0.25  1.00  1.00  1.00  1.00  1.00  0.01  0.00
0.00  0.25  1.00  1.00  1.00  1.00  1.00  0.01  0.00
$beta by ik, ith
0.00  0.25  1.00  1.00  1.00  1.00  1.00  0.01  0.00
0.00  0.25  1.00  1.00  1.00  1.00  1.00  0.01  0.00
0.00  0.25  1.00  1.00  1.00  1.00  1.00  0.01  0.00
0.00  0.25  1.00  1.00  1.00  1.00  1.00  0.01  0.00
0.00  0.25  1.00  1.00  1.00  1.00  1.00  0.01  0.00
$ ilon ilat of the cell. lon: 7.27854994, lat: 37.38853909
325   1
$ sizes of the cell in km
    61.684       54.562       53.865       60.796       61.684       54.562       53.865       60.796       61.684
$ mean alpha: 0.46845182004418323
$ mean beta: 0.5058096817395877
$alpha by ik, ith
1.00  0.73  0.28  0.00  0.00  0.00  0.28  0.93  1.00
1.00  0.73  0.28  0.00  0.00  0.00  0.28  0.93  1.00
1.00  0.73  0.28  0.00  0.00  0.00  0.28  0.93  1.00
1.00  0.73  0.28  0.00  0.00  0.00  0.28  0.93  1.00
1.00  0.73  0.28  0.00  0.00  0.00  0.28  0.93  1.00
$beta by ik, ith
1.00  0.95  0.29  0.00  0.00  0.00  0.34  0.97  1.00
1.00  0.95  0.29  0.00  0.00  0.00  0.34  0.97  1.00
1.00  0.95  0.29  0.00  0.00  0.00  0.34  0.97  1.00
1.00  0.95  0.29  0.00  0.00  0.00  0.34  0.97  1.00
1.00  0.95  0.29  0.00  0.00  0.00  0.34  0.97  1.00
