$WAVEWATCH III LOCAL OBSTRUCTIONS
31
$ ilon ilat of the cell. lon: 7.80206835, lat: 30.39962121
16   1
$ sizes of the cell in km
    66.313       73.427       78.335       67.190       66.313       73.427       78.335       67.190       66.313
$ mean alpha: 0.3864163219295922
$ mean beta: 0.573384453668755
$alpha by ik, ith
0.25  0.27  0.77  0.32  0.25  0.27  0.77  0.32  0.25
0.25  0.27  0.77  0.32  0.25  0.27  0.77  0.32  0.25
0.25  0.27  0.77  0.32  0.25  0.27  0.77  0.32  0.25
0.25  0.27  0.77  0.32  0.25  0.27  0.77  0.32  0.25
0.25  0.27  0.77  0.32  0.25  0.27  0.77  0.32  0.25
$beta by ik, ith
0.38  0.27  0.82  0.76  0.61  0.76  0.81  0.37  0.38
0.38  0.27  0.82  0.76  0.61  0.76  0.81  0.37  0.38
0.38  0.27  0.82  0.76  0.61  0.76  0.81  0.37  0.38
0.38  0.27  0.82  0.76  0.61  0.76  0.81  0.37  0.38
0.38  0.27  0.82  0.76  0.61  0.76  0.81  0.37  0.38
$ ilon ilat of the cell. lon: 7.22093353, lat: 31.60542966
32   1
$ sizes of the cell in km
    70.818       62.810       64.451       69.292       70.818       62.810       64.451       69.292       70.818
$ mean alpha: 0.09995933330637108
$ mean beta: 0.3056246828108634
$alpha by ik, ith
0.00  0.00  0.45  0.00  0.00  0.00  0.45  0.00  0.00
0.00  0.00  0.45  0.00  0.00  0.00  0.45  0.00  0.00
0.00  0.00  0.45  0.00  0.00  0.00  0.45  0.00  0.00
0.00  0.00  0.45  0.00  0.00  0.00  0.45  0.00  0.00
0.00  0.00  0.45  0.00  0.00  0.00  0.45  0.00  0.00
$beta by ik, ith
0.48  0.36  0.56  0.00  0.00  0.00  0.44  0.42  0.48
0.48  0.36  0.56  0.00  0.00  0.00  0.44  0.42  0.48
0.48  0.36  0.56  0.00  0.00  0.00  0.44  0.42  0.48
0.48  0.36  0.56  0.00  0.00  0.00  0.44  0.42  0.48
0.48  0.36  0.56  0.00  0.00  0.00  0.44  0.42  0.48
$ ilon ilat of the cell. lon: 7.34368734, lat: 33.967713
45   1
$ sizes of the cell in km
    70.739       66.240       67.963       77.994       70.739       66.240       67.963       77.994       70.739
$ mean alpha: 0.33848115265466383
$ mean beta: 0.5618293624972601
$alpha by ik, ith
0.37  0.42  0.49  0.06  0.37  0.42  0.49  0.06  0.37
0.37  0.42  0.49  0.06  0.37  0.42  0.49  0.06  0.37
0.37  0.42  0.49  0.06  0.37  0.42  0.49  0.06  0.37
0.37  0.42  0.49  0.06  0.37  0.42  0.49  0.06  0.37
0.37  0.42  0.49  0.06  0.37  0.42  0.49  0.06  0.37
$beta by ik, ith
0.83  0.73  0.60  0.02  0.34  0.43  0.60  0.68  0.83
0.83  0.73  0.60  0.02  0.34  0.43  0.60  0.68  0.83
0.83  0.73  0.60  0.02  0.34  0.43  0.60  0.68  0.83
0.83  0.73  0.60  0.02  0.34  0.43  0.60  0.68  0.83
0.83  0.73  0.60  0.02  0.34  0.43  0.60  0.68  0.83
$ ilon ilat of the cell. lon: 6.95347585, lat: 33.15382488
47   1
$ sizes of the cell in km
    73.627       62.188       61.297       69.610       73.627       62.188       61.297       69.610       73.627
$ mean alpha: 0.9257629841472073
$ mean beta: 0.9577413910848601
$alpha by ik, ith
0.89  0.91  0.97  0.94  0.89  0.91  0.97  0.94  0.89
0.89  0.91  0.97  0.94  0.89  0.91  0.97  0.94  0.89
0.89  0.91  0.97  0.94  0.89  0.91  0.97  0.94  0.89
0.89  0.91  0.97  0.94  0.89  0.91  0.97  0.94  0.89
0.89  0.91  0.97  0.94  0.89  0.91  0.97  0.94  0.89
$beta by ik, ith
0.98  0.98  0.98  0.94  0.89  0.91  0.97  0.99  0.98
0.98  0.98  0.98  0.94  0.89  0.91  0.97  0.99  0.98
0.98  0.98  0.98  0.94  0.89  0.91  0.97  0.99  0.98
0.98  0.98  0.98  0.94  0.89  0.91  0.97  0.99  0.98
0.98  0.98  0.98  0.94  0.89  0.91  0.97  0.99  0.98
$ ilon ilat of the cell. lon: 7.45817242, lat: 32.02599122
48   1
$ sizes of the cell in km
    65.119       63.934       64.024       63.594       65.119       63.934       64.024       63.594       65.119
$ mean alpha: 0.213350678824668
$ mean beta: 0.40750451347941963
$alpha by ik, ith
0.32  0.00  0.38  0.10  0.32  0.00  0.38  0.10  0.32
0.32  0.00  0.38  0.10  0.32  0.00  0.38  0.10  0.32
0.32  0.00  0.38  0.10  0.32  0.00  0.38  0.10  0.32
0.32  0.00  0.38  0.10  0.32  0.00  0.38  0.10  0.32
0.32  0.00  0.38  0.10  0.32  0.00  0.38  0.10  0.32
$beta by ik, ith
0.62  0.30  0.52  0.30  0.30  0.17  0.46  0.37  0.62
0.62  0.30  0.52  0.30  0.30  0.17  0.46  0.37  0.62
0.62  0.30  0.52  0.30  0.30  0.17  0.46  0.37  0.62
0.62  0.30  0.52  0.30  0.30  0.17  0.46  0.37  0.62
0.62  0.30  0.52  0.30  0.30  0.17  0.46  0.37  0.62
$ ilon ilat of the cell. lon: 7.21379879, lat: 31.02571266
52   1
$ sizes of the cell in km
    66.342       60.459       60.777       66.779       66.342       60.459       60.777       66.779       66.342
$ mean alpha: 0.4787237919353831
$ mean beta: 0.6724262938412138
$alpha by ik, ith
0.38  0.41  0.76  0.42  0.38  0.41  0.76  0.42  0.38
0.38  0.41  0.76  0.42  0.38  0.41  0.76  0.42  0.38
0.38  0.41  0.76  0.42  0.38  0.41  0.76  0.42  0.38
0.38  0.41  0.76  0.42  0.38  0.41  0.76  0.42  0.38
0.38  0.41  0.76  0.42  0.38  0.41  0.76  0.42  0.38
$beta by ik, ith
0.84  0.79  0.78  0.42  0.33  0.43  0.79  0.84  0.84
0.84  0.79  0.78  0.42  0.33  0.43  0.79  0.84  0.84
0.84  0.79  0.78  0.42  0.33  0.43  0.79  0.84  0.84
0.84  0.79  0.78  0.42  0.33  0.43  0.79  0.84  0.84
0.84  0.79  0.78  0.42  0.33  0.43  0.79  0.84  0.84
$ ilon ilat of the cell. lon: 7.3654991, lat: 30.62068509
53   1
$ sizes of the cell in km
    50.675       63.619       65.057       55.708       50.675       63.619       65.057       55.708       50.675
$ mean alpha: 0.03984505373317673
$ mean beta: 0.17506944040357358
$alpha by ik, ith
0.00  0.00  0.18  0.00  0.00  0.00  0.18  0.00  0.00
0.00  0.00  0.18  0.00  0.00  0.00  0.18  0.00  0.00
0.00  0.00  0.18  0.00  0.00  0.00  0.18  0.00  0.00
0.00  0.00  0.18  0.00  0.00  0.00  0.18  0.00  0.00
0.00  0.00  0.18  0.00  0.00  0.00  0.18  0.00  0.00
$beta by ik, ith
0.31  0.26  0.32  0.00  0.00  0.00  0.20  0.18  0.31
0.31  0.26  0.32  0.00  0.00  0.00  0.20  0.18  0.31
0.31  0.26  0.32  0.00  0.00  0.00  0.20  0.18  0.31
0.31  0.26  0.32  0.00  0.00  0.00  0.20  0.18  0.31
0.31  0.26  0.32  0.00  0.00  0.00  0.20  0.18  0.31
$ ilon ilat of the cell. lon: 7.81865385, lat: 29.2
55   1
$ sizes of the cell in km
    62.720       36.270       35.431       48.754       62.720       36.270       35.431       48.754       62.720
$ mean alpha: 0.4388157757769008
$ mean beta: 0.5855883645940442
$alpha by ik, ith
0.57  0.20  0.46  0.46  0.57  0.20  0.46  0.46  0.57
0.57  0.20  0.46  0.46  0.57  0.20  0.46  0.46  0.57
0.57  0.20  0.46  0.46  0.57  0.20  0.46  0.46  0.57
0.57  0.20  0.46  0.46  0.57  0.20  0.46  0.46  0.57
0.57  0.20  0.46  0.46  0.57  0.20  0.46  0.46  0.57
$beta by ik, ith
0.62  0.06  0.61  0.75  0.76  0.79  0.61  0.44  0.62
0.62  0.06  0.61  0.75  0.76  0.79  0.61  0.44  0.62
0.62  0.06  0.61  0.75  0.76  0.79  0.61  0.44  0.62
0.62  0.06  0.61  0.75  0.76  0.79  0.61  0.44  0.62
0.62  0.06  0.61  0.75  0.76  0.79  0.61  0.44  0.62
$ ilon ilat of the cell. lon: 7.88671096, lat: 31.62907758
57   1
$ sizes of the cell in km
    67.767       63.681       68.893       73.168       67.767       63.681       68.893       73.168       67.767
$ mean alpha: 0.5444706635418066
$ mean beta: 0.6677479073439911
$alpha by ik, ith
0.41  0.45  0.81  0.59  0.41  0.45  0.81  0.59  0.41
0.41  0.45  0.81  0.59  0.41  0.45  0.81  0.59  0.41
0.41  0.45  0.81  0.59  0.41  0.45  0.81  0.59  0.41
0.41  0.45  0.81  0.59  0.41  0.45  0.81  0.59  0.41
0.41  0.45  0.81  0.59  0.41  0.45  0.81  0.59  0.41
$beta by ik, ith
0.40  0.48  0.89  0.88  0.75  0.83  0.80  0.56  0.40
0.40  0.48  0.89  0.88  0.75  0.83  0.80  0.56  0.40
0.40  0.48  0.89  0.88  0.75  0.83  0.80  0.56  0.40
0.40  0.48  0.89  0.88  0.75  0.83  0.80  0.56  0.40
0.40  0.48  0.89  0.88  0.75  0.83  0.80  0.56  0.40
$ ilon ilat of the cell. lon: 7.82183451, lat: 30.96019661
58   1
$ sizes of the cell in km
    69.344       70.389       81.903       76.875       69.344       70.389       81.903       76.875       69.344
$ mean alpha: 0.11296607149472138
$ mean beta: 0.33990571885500354
$alpha by ik, ith
0.00  0.00  0.51  0.00  0.00  0.00  0.51  0.00  0.00
0.00  0.00  0.51  0.00  0.00  0.00  0.51  0.00  0.00
0.00  0.00  0.51  0.00  0.00  0.00  0.51  0.00  0.00
0.00  0.00  0.51  0.00  0.00  0.00  0.51  0.00  0.00
0.00  0.00  0.51  0.00  0.00  0.00  0.51  0.00  0.00
$beta by ik, ith
0.17  0.01  0.61  0.57  0.45  0.58  0.50  0.00  0.17
0.17  0.01  0.61  0.57  0.45  0.58  0.50  0.00  0.17
0.17  0.01  0.61  0.57  0.45  0.58  0.50  0.00  0.17
0.17  0.01  0.61  0.57  0.45  0.58  0.50  0.00  0.17
0.17  0.01  0.61  0.57  0.45  0.58  0.50  0.00  0.17
$ ilon ilat of the cell. lon: 7.20905168, lat: 29.79858406
59   1
$ sizes of the cell in km
    92.671      103.417      107.322       96.045       92.671      103.417      107.322       96.045       92.671
$ mean alpha: 0.16720445089690716
$ mean beta: 0.4004849279777566
$alpha by ik, ith
0.14  0.00  0.54  0.00  0.14  0.00  0.54  0.00  0.14
0.14  0.00  0.54  0.00  0.14  0.00  0.54  0.00  0.14
0.14  0.00  0.54  0.00  0.14  0.00  0.54  0.00  0.14
0.14  0.00  0.54  0.00  0.14  0.00  0.54  0.00  0.14
0.14  0.00  0.54  0.00  0.14  0.00  0.54  0.00  0.14
$beta by ik, ith
0.64  0.49  0.63  0.07  0.12  0.00  0.51  0.50  0.64
0.64  0.49  0.63  0.07  0.12  0.00  0.51  0.50  0.64
0.64  0.49  0.63  0.07  0.12  0.00  0.51  0.50  0.64
0.64  0.49  0.63  0.07  0.12  0.00  0.51  0.50  0.64
0.64  0.49  0.63  0.07  0.12  0.00  0.51  0.50  0.64
$ ilon ilat of the cell. lon: 7.21554487, lat: 29.2
63   1
$ sizes of the cell in km
    38.989       29.501       22.908       29.849       38.989       29.501       22.908       29.849       38.989
$ mean alpha: 0.7888276872961724
$ mean beta: 0.857269506284246
$alpha by ik, ith
0.73  0.86  0.86  0.73  0.73  0.86  0.86  0.73  0.73
0.73  0.86  0.86  0.73  0.73  0.86  0.86  0.73  0.73
0.73  0.86  0.86  0.73  0.73  0.86  0.86  0.73  0.73
0.73  0.86  0.86  0.73  0.73  0.86  0.86  0.73  0.73
0.73  0.86  0.86  0.73  0.73  0.86  0.86  0.73  0.73
$beta by ik, ith
0.89  0.95  0.92  0.73  0.70  0.80  0.86  0.96  0.89
0.89  0.95  0.92  0.73  0.70  0.80  0.86  0.96  0.89
0.89  0.95  0.92  0.73  0.70  0.80  0.86  0.96  0.89
0.89  0.95  0.92  0.73  0.70  0.80  0.86  0.96  0.89
0.89  0.95  0.92  0.73  0.70  0.80  0.86  0.96  0.89
$ ilon ilat of the cell. lon: 7.58521044, lat: 32.73290094
117   1
$ sizes of the cell in km
    84.738       84.079       84.112       87.523       84.738       84.079       84.112       87.523       84.738
$ mean alpha: 0.11548259488693277
$ mean beta: 0.24386908611731606
$alpha by ik, ith
0.00  0.00  0.52  0.00  0.00  0.00  0.52  0.00  0.00
0.00  0.00  0.52  0.00  0.00  0.00  0.52  0.00  0.00
0.00  0.00  0.52  0.00  0.00  0.00  0.52  0.00  0.00
0.00  0.00  0.52  0.00  0.00  0.00  0.52  0.00  0.00
0.00  0.00  0.52  0.00  0.00  0.00  0.52  0.00  0.00
$beta by ik, ith
0.34  0.00  0.54  0.00  0.17  0.25  0.50  0.05  0.34
0.34  0.00  0.54  0.00  0.17  0.25  0.50  0.05  0.34
0.34  0.00  0.54  0.00  0.17  0.25  0.50  0.05  0.34
0.34  0.00  0.54  0.00  0.17  0.25  0.50  0.05  0.34
0.34  0.00  0.54  0.00  0.17  0.25  0.50  0.05  0.34
$ ilon ilat of the cell. lon: 7.69373187, lat: 33.3811302
119   1
$ sizes of the cell in km
    79.561       65.450       58.428       70.786       79.561       65.450       58.428       70.786       79.561
$ mean alpha: 0.12134726669200457
$ mean beta: 0.31305817680785736
$alpha by ik, ith
0.02  0.00  0.51  0.00  0.02  0.00  0.51  0.00  0.02
0.02  0.00  0.51  0.00  0.02  0.00  0.51  0.00  0.02
0.02  0.00  0.51  0.00  0.02  0.00  0.51  0.00  0.02
0.02  0.00  0.51  0.00  0.02  0.00  0.51  0.00  0.02
0.02  0.00  0.51  0.00  0.02  0.00  0.51  0.00  0.02
$beta by ik, ith
0.13  0.00  0.57  0.53  0.39  0.53  0.55  0.00  0.13
0.13  0.00  0.57  0.53  0.39  0.53  0.55  0.00  0.13
0.13  0.00  0.57  0.53  0.39  0.53  0.55  0.00  0.13
0.13  0.00  0.57  0.53  0.39  0.53  0.55  0.00  0.13
0.13  0.00  0.57  0.53  0.39  0.53  0.55  0.00  0.13
$ ilon ilat of the cell. lon: 7.20016564, lat: 33.54377089
121   1
$ sizes of the cell in km
    71.966       56.083       49.100       61.952       71.966       56.083       49.100       61.952       71.966
$ mean alpha: 0.3036946612721794
$ mean beta: 0.5376961316195218
$alpha by ik, ith
0.14  0.27  0.54  0.35  0.14  0.27  0.54  0.35  0.14
0.14  0.27  0.54  0.35  0.14  0.27  0.54  0.35  0.14
0.14  0.27  0.54  0.35  0.14  0.27  0.54  0.35  0.14
0.14  0.27  0.54  0.35  0.14  0.27  0.54  0.35  0.14
0.14  0.27  0.54  0.35  0.14  0.27  0.54  0.35  0.14
$beta by ik, ith
0.78  0.73  0.67  0.28  0.08  0.19  0.57  0.76  0.78
0.78  0.73  0.67  0.28  0.08  0.19  0.57  0.76  0.78
0.78  0.73  0.67  0.28  0.08  0.19  0.57  0.76  0.78
0.78  0.73  0.67  0.28  0.08  0.19  0.57  0.76  0.78
0.78  0.73  0.67  0.28  0.08  0.19  0.57  0.76  0.78
$ ilon ilat of the cell. lon: 7.79908596, lat: 33.78941788
144   1
$ sizes of the cell in km
    74.657       65.399       64.376       76.321       74.657       65.399       64.376       76.321       74.657
$ mean alpha: 0.19801977572587634
$ mean beta: 0.4025245263973755
$alpha by ik, ith
0.00  0.16  0.73  0.00  0.00  0.16  0.73  0.00  0.00
0.00  0.16  0.73  0.00  0.00  0.16  0.73  0.00  0.00
0.00  0.16  0.73  0.00  0.00  0.16  0.73  0.00  0.00
0.00  0.16  0.73  0.00  0.00  0.16  0.73  0.00  0.00
0.00  0.16  0.73  0.00  0.00  0.16  0.73  0.00  0.00
$beta by ik, ith
0.04  0.16  0.79  0.65  0.52  0.70  0.73  0.00  0.04
0.04  0.16  0.79  0.65  0.52  0.70  0.73  0.00  0.04
0.04  0.16  0.79  0.65  0.52  0.70  0.73  0.00  0.04
0.04  0.16  0.79  0.65  0.52  0.70  0.73  0.00  0.04
0.04  0.16  0.79  0.65  0.52  0.70  0.73  0.00  0.04
$ ilon ilat of the cell. lon: 7.46902711, lat: 35.13353261
149   1
$ sizes of the cell in km
    68.652       63.765       65.270       71.576       68.652       63.765       65.270       71.576       68.652
$ mean alpha: 0.10795704876910422
$ mean beta: 0.26001742437150777
$alpha by ik, ith
0.04  0.00  0.42  0.00  0.04  0.00  0.42  0.00  0.04
0.04  0.00  0.42  0.00  0.04  0.00  0.42  0.00  0.04
0.04  0.00  0.42  0.00  0.04  0.00  0.42  0.00  0.04
0.04  0.00  0.42  0.00  0.04  0.00  0.42  0.00  0.04
0.04  0.00  0.42  0.00  0.04  0.00  0.42  0.00  0.04
$beta by ik, ith
0.49  0.22  0.52  0.00  0.02  0.00  0.41  0.19  0.49
0.49  0.22  0.52  0.00  0.02  0.00  0.41  0.19  0.49
0.49  0.22  0.52  0.00  0.02  0.00  0.41  0.19  0.49
0.49  0.22  0.52  0.00  0.02  0.00  0.41  0.19  0.49
0.49  0.22  0.52  0.00  0.02  0.00  0.41  0.19  0.49
$ ilon ilat of the cell. lon: 7.60937609, lat: 34.53562104
150   1
$ sizes of the cell in km
    66.418       70.957       86.413       88.747       66.418       70.957       86.413       88.747       66.418
$ mean alpha: 0.12202513242861247
$ mean beta: 0.24930023287833675
$alpha by ik, ith
0.09  0.00  0.42  0.00  0.09  0.00  0.42  0.00  0.09
0.09  0.00  0.42  0.00  0.09  0.00  0.42  0.00  0.09
0.09  0.00  0.42  0.00  0.09  0.00  0.42  0.00  0.09
0.09  0.00  0.42  0.00  0.09  0.00  0.42  0.00  0.09
0.09  0.00  0.42  0.00  0.09  0.00  0.42  0.00  0.09
$beta by ik, ith
0.25  0.01  0.50  0.26  0.31  0.28  0.39  0.00  0.25
0.25  0.01  0.50  0.26  0.31  0.28  0.39  0.00  0.25
0.25  0.01  0.50  0.26  0.31  0.28  0.39  0.00  0.25
0.25  0.01  0.50  0.26  0.31  0.28  0.39  0.00  0.25
0.25  0.01  0.50  0.26  0.31  0.28  0.39  0.00  0.25
$ ilon ilat of the cell. lon: 7.28289999, lat: 35.86613972
151   1
$ sizes of the cell in km
    74.533       67.675       60.783       66.331       74.533       67.675       60.783       66.331       74.533
$ mean alpha: 0.29014578155494253
$ mean beta: 0.4931224073623063
$alpha by ik, ith
0.28  0.08  0.49  0.32  0.28  0.08  0.49  0.32  0.28
0.28  0.08  0.49  0.32  0.28  0.08  0.49  0.32  0.28
0.28  0.08  0.49  0.32  0.28  0.08  0.49  0.32  0.28
0.28  0.08  0.49  0.32  0.28  0.08  0.49  0.32  0.28
0.28  0.08  0.49  0.32  0.28  0.08  0.49  0.32  0.28
$beta by ik, ith
0.69  0.64  0.71  0.30  0.24  0.03  0.47  0.65  0.69
0.69  0.64  0.71  0.30  0.24  0.03  0.47  0.65  0.69
0.69  0.64  0.71  0.30  0.24  0.03  0.47  0.65  0.69
0.69  0.64  0.71  0.30  0.24  0.03  0.47  0.65  0.69
0.69  0.64  0.71  0.30  0.24  0.03  0.47  0.65  0.69
$ ilon ilat of the cell. lon: 7.60143733, lat: 35.53920776
153   1
$ sizes of the cell in km
    58.396       57.769       62.561       64.303       58.396       57.769       62.561       64.303       58.396
$ mean alpha: 0.23264253173679553
$ mean beta: 0.3931892347347829
$alpha by ik, ith
0.37  0.07  0.33  0.10  0.37  0.07  0.33  0.10  0.37
0.37  0.07  0.33  0.10  0.37  0.07  0.33  0.10  0.37
0.37  0.07  0.33  0.10  0.37  0.07  0.33  0.10  0.37
0.37  0.07  0.33  0.10  0.37  0.07  0.33  0.10  0.37
0.37  0.07  0.33  0.10  0.37  0.07  0.33  0.10  0.37
$beta by ik, ith
0.41  0.17  0.60  0.56  0.52  0.48  0.30  0.09  0.41
0.41  0.17  0.60  0.56  0.52  0.48  0.30  0.09  0.41
0.41  0.17  0.60  0.56  0.52  0.48  0.30  0.09  0.41
0.41  0.17  0.60  0.56  0.52  0.48  0.30  0.09  0.41
0.41  0.17  0.60  0.56  0.52  0.48  0.30  0.09  0.41
$ ilon ilat of the cell. lon: 7.31349407, lat: 36.98037086
190   1
$ sizes of the cell in km
    54.472       52.131       52.508       58.198       54.472       52.131       52.508       58.198       54.472
$ mean alpha: 0.06387348335229476
$ mean beta: 0.21510975732512463
$alpha by ik, ith
0.00  0.00  0.29  0.00  0.00  0.00  0.29  0.00  0.00
0.00  0.00  0.29  0.00  0.00  0.00  0.29  0.00  0.00
0.00  0.00  0.29  0.00  0.00  0.00  0.29  0.00  0.00
0.00  0.00  0.29  0.00  0.00  0.00  0.29  0.00  0.00
0.00  0.00  0.29  0.00  0.00  0.00  0.29  0.00  0.00
$beta by ik, ith
0.38  0.17  0.50  0.00  0.00  0.00  0.27  0.22  0.38
0.38  0.17  0.50  0.00  0.00  0.00  0.27  0.22  0.38
0.38  0.17  0.50  0.00  0.00  0.00  0.27  0.22  0.38
0.38  0.17  0.50  0.00  0.00  0.00  0.27  0.22  0.38
0.38  0.17  0.50  0.00  0.00  0.00  0.27  0.22  0.38
$ ilon ilat of the cell. lon: 7.30697416, lat: 36.42308965
192   1
$ sizes of the cell in km
    73.667       66.829       70.432       72.550       73.667       66.829       70.432       72.550       73.667
$ mean alpha: 0.15515909583228477
$ mean beta: 0.3531844408093678
$alpha by ik, ith
0.14  0.00  0.49  0.00  0.14  0.00  0.49  0.00  0.14
0.14  0.00  0.49  0.00  0.14  0.00  0.49  0.00  0.14
0.14  0.00  0.49  0.00  0.14  0.00  0.49  0.00  0.14
0.14  0.00  0.49  0.00  0.14  0.00  0.49  0.00  0.14
0.14  0.00  0.49  0.00  0.14  0.00  0.49  0.00  0.14
$beta by ik, ith
0.59  0.43  0.58  0.00  0.13  0.00  0.48  0.37  0.59
0.59  0.43  0.58  0.00  0.13  0.00  0.48  0.37  0.59
0.59  0.43  0.58  0.00  0.13  0.00  0.48  0.37  0.59
0.59  0.43  0.58  0.00  0.13  0.00  0.48  0.37  0.59
0.59  0.43  0.58  0.00  0.13  0.00  0.48  0.37  0.59
$ ilon ilat of the cell. lon: 7.89430197, lat: 36.69703371
193   1
$ sizes of the cell in km
    63.807       62.316       64.448       63.547       63.807       62.316       64.448       63.547       63.807
$ mean alpha: 0.5564340072325089
$ mean beta: 0.6790882418501784
$alpha by ik, ith
0.40  0.63  0.76  0.52  0.40  0.63  0.76  0.52  0.40
0.40  0.63  0.76  0.52  0.40  0.63  0.76  0.52  0.40
0.40  0.63  0.76  0.52  0.40  0.63  0.76  0.52  0.40
0.40  0.63  0.76  0.52  0.40  0.63  0.76  0.52  0.40
0.40  0.63  0.76  0.52  0.40  0.63  0.76  0.52  0.40
$beta by ik, ith
0.42  0.60  0.85  0.89  0.75  0.90  0.80  0.47  0.42
0.42  0.60  0.85  0.89  0.75  0.90  0.80  0.47  0.42
0.42  0.60  0.85  0.89  0.75  0.90  0.80  0.47  0.42
0.42  0.60  0.85  0.89  0.75  0.90  0.80  0.47  0.42
0.42  0.60  0.85  0.89  0.75  0.90  0.80  0.47  0.42
$ ilon ilat of the cell. lon: 8.01776447, lat: 36.13128573
196   1
$ sizes of the cell in km
    83.612       81.486       85.957       88.600       83.612       81.486       85.957       88.600       83.612
$ mean alpha: 0.8128709695433282
$ mean beta: 0.8689257836598467
$alpha by ik, ith
0.73  0.78  0.93  0.84  0.73  0.78  0.93  0.84  0.73
0.73  0.78  0.93  0.84  0.73  0.78  0.93  0.84  0.73
0.73  0.78  0.93  0.84  0.73  0.78  0.93  0.84  0.73
0.73  0.78  0.93  0.84  0.73  0.78  0.93  0.84  0.73
0.73  0.78  0.93  0.84  0.73  0.78  0.93  0.84  0.73
$beta by ik, ith
0.74  0.76  0.95  0.95  0.91  0.97  0.96  0.85  0.74
0.74  0.76  0.95  0.95  0.91  0.97  0.96  0.85  0.74
0.74  0.76  0.95  0.95  0.91  0.97  0.96  0.85  0.74
0.74  0.76  0.95  0.95  0.91  0.97  0.96  0.85  0.74
0.74  0.76  0.95  0.95  0.91  0.97  0.96  0.85  0.74
$ ilon ilat of the cell. lon: 7.06736494, lat: 37.89224483
239   1
$ sizes of the cell in km
    66.117       68.698       73.325       71.329       66.117       68.698       73.325       71.329       66.117
$ mean alpha: 0.45566281857308905
$ mean beta: 0.6506007536888663
$alpha by ik, ith
0.36  0.40  0.63  0.48  0.36  0.40  0.63  0.48  0.36
0.36  0.40  0.63  0.48  0.36  0.40  0.63  0.48  0.36
0.36  0.40  0.63  0.48  0.36  0.40  0.63  0.48  0.36
0.36  0.40  0.63  0.48  0.36  0.40  0.63  0.48  0.36
0.36  0.40  0.63  0.48  0.36  0.40  0.63  0.48  0.36
$beta by ik, ith
0.83  0.79  0.79  0.48  0.34  0.33  0.66  0.78  0.83
0.83  0.79  0.79  0.48  0.34  0.33  0.66  0.78  0.83
0.83  0.79  0.79  0.48  0.34  0.33  0.66  0.78  0.83
0.83  0.79  0.79  0.48  0.34  0.33  0.66  0.78  0.83
0.83  0.79  0.79  0.48  0.34  0.33  0.66  0.78  0.83
$ ilon ilat of the cell. lon: 7.45, lat: 38.8
315   1
$ sizes of the cell in km
    46.044       30.188       32.871       45.659       46.044       30.188       32.871       45.659       46.044
$ mean alpha: 0.06440619575393658
$ mean beta: 0.17114914736620207
$alpha by ik, ith
0.00  0.00  0.29  0.00  0.00  0.00  0.29  0.00  0.00
0.00  0.00  0.29  0.00  0.00  0.00  0.29  0.00  0.00
0.00  0.00  0.29  0.00  0.00  0.00  0.29  0.00  0.00
0.00  0.00  0.29  0.00  0.00  0.00  0.29  0.00  0.00
0.00  0.00  0.29  0.00  0.00  0.00  0.29  0.00  0.00
$beta by ik, ith
0.16  0.20  0.63  0.10  0.00  0.00  0.28  0.00  0.16
0.16  0.20  0.63  0.10  0.00  0.00  0.28  0.00  0.16
0.16  0.20  0.63  0.10  0.00  0.00  0.28  0.00  0.16
0.16  0.20  0.63  0.10  0.00  0.00  0.28  0.00  0.16
0.16  0.20  0.63  0.10  0.00  0.00  0.28  0.00  0.16
$ ilon ilat of the cell. lon: 7.775, lat: 38.19653973
317   1
$ sizes of the cell in km
    68.214       77.081       82.742       77.108       68.214       77.081       82.742       77.108       68.214
$ mean alpha: 0.143025479362315
$ mean beta: 0.3201792168920155
$alpha by ik, ith
0.10  0.00  0.49  0.00  0.10  0.00  0.49  0.00  0.10
0.10  0.00  0.49  0.00  0.10  0.00  0.49  0.00  0.10
0.10  0.00  0.49  0.00  0.10  0.00  0.49  0.00  0.10
0.10  0.00  0.49  0.00  0.10  0.00  0.49  0.00  0.10
0.10  0.00  0.49  0.00  0.10  0.00  0.49  0.00  0.10
$beta by ik, ith
0.05  0.00  0.64  0.51  0.54  0.57  0.51  0.02  0.05
0.05  0.00  0.64  0.51  0.54  0.57  0.51  0.02  0.05
0.05  0.00  0.64  0.51  0.54  0.57  0.51  0.02  0.05
0.05  0.00  0.64  0.51  0.54  0.57  0.51  0.02  0.05
0.05  0.00  0.64  0.51  0.54  0.57  0.51  0.02  0.05
$ ilon ilat of the cell. lon: 7.28181585, lat: 38.37586562
320   1
$ sizes of the cell in km
    48.524       51.868       53.954       54.344       48.524       51.868       53.954       54.344       48.524
$ mean alpha: 0.36344198958388174
$ mean beta: 0.5809713767305319
$alpha by ik, ith
0.22  0.45  0.65  0.20  0.22  0.45  0.65  0.20  0.22
0.22  0.45  0.65  0.20  0.22  0.45  0.65  0.20  0.22
0.22  0.45  0.65  0.20  0.22  0.45  0.65  0.20  0.22
0.22  0.45  0.65  0.20  0.22  0.45  0.65  0.20  0.22
0.22  0.45  0.65  0.20  0.22  0.45  0.65  0.20  0.22
$beta by ik, ith
0.73  0.72  0.71  0.15  0.17  0.50  0.73  0.77  0.73
0.73  0.72  0.71  0.15  0.17  0.50  0.73  0.77  0.73
0.73  0.72  0.71  0.15  0.17  0.50  0.73  0.77  0.73
0.73  0.72  0.71  0.15  0.17  0.50  0.73  0.77  0.73
0.73  0.72  0.71  0.15  0.17  0.50  0.73  0.77  0.73
$ ilon ilat of the cell. lon: 7.73807143, lat: 37.53790307
321   1
$ sizes of the cell in km
    56.696       58.231       59.834       61.726       56.696       58.231       59.834       61.726       56.696
$ mean alpha: 0.09733171420076671
$ mean beta: 0.25223977722825375
$alpha by ik, ith
0.04  0.00  0.34  0.03  0.04  0.00  0.34  0.03  0.04
0.04  0.00  0.34  0.03  0.04  0.00  0.34  0.03  0.04
0.04  0.00  0.34  0.03  0.04  0.00  0.34  0.03  0.04
0.04  0.00  0.34  0.03  0.04  0.00  0.34  0.03  0.04
0.04  0.00  0.34  0.03  0.04  0.00  0.34  0.03  0.04
$beta by ik, ith
0.05  0.00  0.42  0.55  0.26  0.52  0.40  0.01  0.05
0.05  0.00  0.42  0.55  0.26  0.52  0.40  0.01  0.05
0.05  0.00  0.42  0.55  0.26  0.52  0.40  0.01  0.05
0.05  0.00  0.42  0.55  0.26  0.52  0.40  0.01  0.05
0.05  0.00  0.42  0.55  0.26  0.52  0.40  0.01  0.05
$ ilon ilat of the cell. lon: 7.90280546, lat: 37.12852948
322   1
$ sizes of the cell in km
    65.017       64.936       64.312       59.087       65.017       64.936       64.312       59.087       65.017
$ mean alpha: 0.5193164806968165
$ mean beta: 0.6522580715212419
$alpha by ik, ith
0.35  0.46  0.73  0.61  0.35  0.46  0.73  0.61  0.35
0.35  0.46  0.73  0.61  0.35  0.46  0.73  0.61  0.35
0.35  0.46  0.73  0.61  0.35  0.46  0.73  0.61  0.35
0.35  0.46  0.73  0.61  0.35  0.46  0.73  0.61  0.35
0.35  0.46  0.73  0.61  0.35  0.46  0.73  0.61  0.35
$beta by ik, ith
0.42  0.42  0.78  0.88  0.67  0.88  0.79  0.60  0.42
0.42  0.42  0.78  0.88  0.67  0.88  0.79  0.60  0.42
0.42  0.42  0.78  0.88  0.67  0.88  0.79  0.60  0.42
0.42  0.42  0.78  0.88  0.67  0.88  0.79  0.60  0.42
0.42  0.42  0.78  0.88  0.67  0.88  0.79  0.60  0.42
$ ilon ilat of the cell. lon: 7.27854994, lat: 37.38853909
325   1
$ sizes of the cell in km
    61.684       54.562       53.865       60.796       61.684       54.562       53.865       60.796       61.684
$ mean alpha: 0.12380242402596385
$ mean beta: 0.3660753799427569
$alpha by ik, ith
0.03  0.00  0.51  0.00  0.03  0.00  0.51  0.00  0.03
0.03  0.00  0.51  0.00  0.03  0.00  0.51  0.00  0.03
0.03  0.00  0.51  0.00  0.03  0.00  0.51  0.00  0.03
0.03  0.00  0.51  0.00  0.03  0.00  0.51  0.00  0.03
0.03  0.00  0.51  0.00  0.03  0.00  0.51  0.00  0.03
$beta by ik, ith
0.51  0.50  0.67  0.00  0.03  0.00  0.48  0.59  0.51
0.51  0.50  0.67  0.00  0.03  0.00  0.48  0.59  0.51
0.51  0.50  0.67  0.00  0.03  0.00  0.48  0.59  0.51
0.51  0.50  0.67  0.00  0.03  0.00  0.48  0.59  0.51
0.51  0.50  0.67  0.00  0.03  0.00  0.48  0.59  0.51
